                                  MODFLOW-NWT-SWR1 
      U.S. GEOLOGICAL SURVEY MODULAR FINITE-DIFFERENCE GROUNDWATER-FLOW MODEL
                            VERSION 1.2.0 03/01/2020
                    BASED ON MODFLOW-2005 VERSION 1.12.00 02/03/2017

 LIST FILE: model1.list
                         UNIT    2

 OPENING model1.dis
 FILE TYPE:DIS   UNIT   11   STATUS:OLD    
 FORMAT:FORMATTED              ACCESS:SEQUENTIAL          

 OPENING model1.bas
 FILE TYPE:BAS6   UNIT   13   STATUS:OLD    
 FORMAT:FORMATTED              ACCESS:SEQUENTIAL          

 OPENING model1.nwt
 FILE TYPE:NWT   UNIT   32   STATUS:OLD    
 FORMAT:FORMATTED              ACCESS:SEQUENTIAL          

 OPENING model1.oc
 FILE TYPE:OC   UNIT   14   STATUS:OLD    
 FORMAT:FORMATTED              ACCESS:SEQUENTIAL          

 OPENING model1.rch
 FILE TYPE:RCH   UNIT   19   STATUS:OLD    
 FORMAT:FORMATTED              ACCESS:SEQUENTIAL          

 OPENING model1.chd
 FILE TYPE:CHD   UNIT   24   STATUS:OLD    
 FORMAT:FORMATTED              ACCESS:SEQUENTIAL          

 OPENING model1.drn
 FILE TYPE:DRN   UNIT   21   STATUS:OLD    
 FORMAT:FORMATTED              ACCESS:SEQUENTIAL          

 OPENING model1.upw
 FILE TYPE:UPW   UNIT   31   STATUS:OLD    
 FORMAT:FORMATTED              ACCESS:SEQUENTIAL          

 OPENING model1.wel
 FILE TYPE:WEL   UNIT   20   STATUS:OLD    
 FORMAT:FORMATTED              ACCESS:SEQUENTIAL          

 OPENING model1.hyd
 FILE TYPE:HYD   UNIT   36   STATUS:OLD    
 FORMAT:FORMATTED              ACCESS:SEQUENTIAL          

 OPENING model1.hds
 FILE TYPE:DATA(BINARY)   UNIT   51   STATUS:REPLACE
 FORMAT:UNFORMATTED            ACCESS:STREAM              

 OPENING model1.cbc
 FILE TYPE:DATA(BINARY)   UNIT   53   STATUS:REPLACE
 FORMAT:UNFORMATTED            ACCESS:STREAM              

 OPENING model1.hyd.bin
 FILE TYPE:DATA(BINARY)   UNIT  536   STATUS:REPLACE
 FORMAT:UNFORMATTED            ACCESS:STREAM              

 BAS -- BASIC PACKAGE, VERSION 1.2.0, 3/01/2020 INPUT READ FROM UNIT   13
 
 MODFLOW was compiled using mixed precision
 Precision of REAL variables:           6
 Precision of DOUBLE PRECISION variables:          15

 DISCRETIZATION INPUT DATA READ FROM UNIT   11
 # DIS package for  MODFLOW-NWT, generated by Flopy.
    1 LAYERS       198 ROWS       274 COLUMNS
   21 STRESS PERIOD(S) IN SIMULATION
 MODEL TIME UNIT IS YEARS
 MODEL LENGTH UNIT IS METERS
  Confining bed flag for each layer:
   0

 OPENING FILE ON UNIT   99:
 ./delr.ref                                                                                                                                                                                              



                               DELR
 READING ON UNIT   99 WITH FORMAT: (274E15.6)          

 OPENING FILE ON UNIT   99:
 ./delc.ref                                                                                                                                                                                              



                               DELC
 READING ON UNIT   99 WITH FORMAT: (198E15.6)          

 OPENING FILE ON UNIT   99:
 ./model_top.ref                                                                                                                                                                                         



           TOP ELEVATION OF LAYER 1
 READING ON UNIT   99 WITH FORMAT: (274E15.6)          

 OPENING FILE ON UNIT   99:
 ./botm_layer_1.ref                                                                                                                                                                                      



             MODEL LAYER BOTTOM EL. FOR LAYER   1
 READING ON UNIT   99 WITH FORMAT: (274E15.6)          


 STRESS PERIOD     LENGTH       TIME STEPS     MULTIPLIER FOR DELT    SS FLAG
 ----------------------------------------------------------------------------
        1         1.000000          1                    1.000         SS
        2         5.000000          5                    1.000         TR
        3         33.00000         33                    1.000         TR
        4         21.00000         21                    1.000         TR
        5         1.000000          1                    1.000         TR
        6         1.000000          1                    1.000         TR
        7         1.000000          1                    1.000         TR
        8         1.000000          1                    1.000         TR
        9         1.000000          1                    1.000         TR
       10         1.000000          1                    1.000         TR
       11         1.000000          1                    1.000         TR
       12         1.000000          1                    1.000         TR
       13         1.000000          1                    1.000         TR
       14         1.000000          1                    1.000         TR
       15         1.000000          1                    1.000         TR
       16         1.000000          1                    1.000         TR
       17         1.000000          1                    1.000         TR
       18         1.000000          1                    1.000         TR
       19         1.000000          1                    1.000         TR
       20         1.000000          1                    1.000         TR
       21         1.000000          1                    1.000         TR

 COMBINED STEADY-STATE AND TRANSIENT SIMULATION



 
 # BAS6 package for  MODFLOW-NWT, generated by Flopy.                            
 THE FREE FORMAT OPTION HAS BEEN SELECTED

 OPENING FILE ON UNIT   99:
 ./ibound_layer_1.ref                                                                                                                                                                                    



                     BOUNDARY ARRAY FOR LAYER   1
 READING ON UNIT   99 WITH FORMAT: (274I10)            

 AQUIFER HEAD WILL BE SET TO  -999.00     AT ALL NO-FLOW NODES (IBOUND=0).

 OPENING FILE ON UNIT   99:
 ./strt_layer_1.ref                                                                                                                                                                                      



                       INITIAL HEAD FOR LAYER   1
 READING ON UNIT   99 WITH FORMAT: (274E15.6)          
 # OC package for  MODFLOW-NWT, generated by Flopy.

 OUTPUT CONTROL IS SPECIFIED ONLY AT TIME STEPS FOR WHICH OUTPUT IS DESIRED
 COMPACT CELL-BY-CELL BUDGET FILES WILL BE WRITTEN
 AUXILIARY DATA WILL BE SAVED IN CELL-BY-CELL BUDGET FILES
 HEAD PRINT FORMAT CODE IS   0    DRAWDOWN PRINT FORMAT CODE IS   0
 HEADS WILL BE SAVED ON UNIT   51    DRAWDOWNS WILL BE SAVED ON UNIT    0
 # NWT package for  MODFLOW-NWT, generated by Flopy.

 NWT1 -- Newton Solver, VERSION 1.2.0, 3/01/2020
         INPUT READ FROM UNIT 32

 COMPLEX OPTION:
 DEFAULT SOLVER INPUT VALUES REFLECT STRONGLY NONLINEAR MODEL
 ***GMRES linear solver will be used***
 
   CONVERGENCE CRITERION OF   0.100000E-01 FOR HEAD SOLUTION
   AND A TOLERANCE OF   0.500000E+03 FOR FLOW SOLUTION AND 
   A MAXIMUM OF   100 OUTER ITERATIONS. 


   D-B-D REDUCTION FACTOR OF    0.850000E+00 AND 
   A D-B-D INCREASE FACTOR OF    0.100000E-04 AND 
   A D-B-D RELAXATION OF    0.000000E+00 AND 
   A MOMENTUM FACTOR OF    0.100000E+00 .


   BACKTRACKING IS ACTIVE 
   THE MAXIMUM NUMBER OF BACKTRACKS IS    50 AND 
   THE BACKTRACKING TOLERANCE IS    0.110000E+01 AND
   THE BACKTRACKING REDUCTION FACTOR IS    0.700000E+00

 GMRES -- LINEAR SOLUTION BY GMRES PACKAGE 
     adapted for HYDROTHERM by Kipp and others (2008)
     using software originally developed by Saad (1990) 32
     using algorithms described in Saad (2003)

 UPW1 -- UPSTREAM WEIGHTING FLOW PACKAGE, VERSION 1.2.0, 3/01/2020
         INPUT READ FROM UNIT 31

 # UPW package for  MODFLOW-NWT, generated by Flopy.
 No named parameters

   LAYER FLAGS:
 LAYER       LAYTYP          LAYAVG    CHANI           LAYVKA           LAYWET
 ---------------------------------------------------------------------------
    1             1             0     1.000E+00             0             0

   INTERPRETATION OF LAYER FLAGS:
                        INTERBLOCK     HORIZONTAL    DATA IN
         LAYER TYPE   TRANSMISSIVITY   ANISOTROPY   ARRAY VKA   WETTABILITY
 LAYER   (LAYTYP)        (LAYAVG)      (CHANI)     (LAYVKA)       (LAYWET)
 ---------------------------------------------------------------------------
    1   CONVERTIBLE      HARMONIC     1.000E+00    VERTICAL K  NON-WETTABLE

 OPENING FILE ON UNIT   99:
 ./hk_layer_1.ref                                                                                                                                                                                        



              HYD. COND. ALONG ROWS FOR LAYER   1
 READING ON UNIT   99 WITH FORMAT: (FREE)              

 OPENING FILE ON UNIT   99:
 ./vka1.ref                                                                                                                                                                                              



                VERTICAL HYD. COND. FOR LAYER   1
 READING ON UNIT   99 WITH FORMAT: (FREE)              

 OPENING FILE ON UNIT   99:
 ./ss_layer_1.ref                                                                                                                                                                                        



                   SPECIFIC STORAGE FOR LAYER   1
 READING ON UNIT   99 WITH FORMAT: (FREE)              

 OPENING FILE ON UNIT   99:
 ./sy_layer_1.ref                                                                                                                                                                                        



                     SPECIFIC YIELD FOR LAYER   1
 READING ON UNIT   99 WITH FORMAT: (FREE)              

 WEL -- WELL PACKAGE FOR NWT VERSION 1.2.0,  3/01/2020 INPUT READ FROM UNIT   20
 # WEL package for  MODFLOW-NWT, generated by Flopy.
 No named parameters
 MAXIMUM OF      4 ACTIVE WELLS AT ONE TIME
 No named parameters


     0 Well parameters

 DRN -- DRAIN PACKAGE, VERSION 7, 5/2/2005 INPUT READ FROM UNIT   21
 # DRN package for  MODFLOW-NWT, generated by Flopy.
 No named parameters
 MAXIMUM OF    135 ACTIVE DRAINS AT ONE TIME
 CELL-BY-CELL FLOWS WILL BE SAVED ON UNIT   53


     0 Drain parameters

 RCH -- RECHARGE PACKAGE, VERSION 7, 5/2/2005 INPUT READ FROM UNIT   19
 # RCH package for  MODFLOW-NWT, generated by Flopy.
 No named parameters
 OPTION 3 -- RECHARGE TO HIGHEST ACTIVE NODE IN EACH VERTICAL COLUMN


     0 Recharge parameters

 CHD -- TIME-VARIANT SPECIFIED-HEAD OPTION, VERSION 7, 5/2/2005
 INPUT READ FROM UNIT   24
 # CHD package for  MODFLOW-NWT, generated by Flopy.
 No named parameters
 MAXIMUM OF    189 TIME-VARIANT SPECIFIED-HEAD CELLS AT ONE TIME


     0 TIME-VARIANT SPECIFIED-HEAD PARAMETERS

 HYD -- HYDROGRAPH DATA FOR BAS PACKAGE, VERSION 7, 07/14/2006
         INPUT READ FROM UNIT 36
 HYDROGRAPH VALUES WILL BE SAVED ON UNIT: 536
 HYDROGRAPH VALUES AT DRY CELLS WILL BE:   -999.00    

 ARR INTYP  KLAY     XL            YL         HYDLBL
 ----------------------------------------------------------------
 HD   C      1   5.31157E+04   1.45428E+04  HDC0011DC15224      
 HD   C      1   5.31157E+04   1.45428E+04  HDC0017DC15225      
 HD   C      1   5.31157E+04   1.45428E+04  HDC0012DC15226      
 HD   C      1   5.31157E+04   1.45428E+04  HDC0018DC15227      
 HD   C      1   5.31157E+04   1.45428E+04  HDC0011DC15228      
 HD   C      1   5.31157E+04   1.45428E+04  HDC0012DC15230      
 HD   C      1   5.31157E+04   1.45428E+04  HDC0014DC15231      
 HD   C      1   5.31157E+04   1.45428E+04  HDC0012DC15232      
 HD   C      1   5.31157E+04   1.45428E+04  HDC0011DC15233      
 HD   C      1   5.37451E+04   1.63086E+04  HDC0018DC13452      
 HD   C      1   5.37451E+04   1.63086E+04  HDC0015DC13456      
 HD   C      1   5.57505E+04   1.68794E+04  HDC0018AA13424      
 HD   C      1   5.57505E+04   1.68794E+04  HDC0017AA13425      
 HD   C      1   5.57505E+04   1.68794E+04  HDC0018AA13426      
 HD   C      1   5.57505E+04   1.68794E+04  HDC0016AA13427      
 HD   C      1   2.07602E+04   1.75356E+04  HDC001401S3518      
 HD   C      1   2.07602E+04   1.75356E+04  HDC001401S3535      
 HD   C      1   2.07602E+04   1.75356E+04  HDC001301S3536      
 HD   C      1   2.07602E+04   1.75356E+04  HDC001801S3537      
 HD   C      1   2.07602E+04   1.75356E+04  HDC001801S3538      
 HD   C      1   2.07602E+04   1.75356E+04  HDC001101S3539      
 HD   C      1   2.07602E+04   1.75356E+04  HDC001501S3540      
 HD   C      1   2.07602E+04   1.75356E+04  HDC001701S3542      
 HD   C      1   2.07602E+04   1.75356E+04  HDC001601S3543      
 HD   C      1   2.07602E+04   1.75356E+04  HDC001601S3544      
 HD   C      1   2.07602E+04   1.75356E+04  HDC001301S3547      
 HD   C      1   2.07602E+04   1.75356E+04  HDC001101S3548      
 HD   C      1   2.07602E+04   1.75356E+04  HDC001401S3549      
 HD   C      1   2.07602E+04   1.75356E+04  HDC001201S3550      
 HD   C      1   2.07602E+04   1.75356E+04  HDC001401S3551      
 HD   C      1   2.23791E+04   1.76138E+04  HDC001601S4018      
 HD   C      1   2.23791E+04   1.76138E+04  HDC001701S4035      
 HD   C      1   2.23791E+04   1.76138E+04  HDC001401S4036      
 HD   C      1   2.23791E+04   1.76138E+04  HDC001501S4037      
 HD   C      1   2.23791E+04   1.76138E+04  HDC001601S4038      
 HD   C      1   2.23791E+04   1.76138E+04  HDC001601S4039      
 HD   C      1   2.23791E+04   1.76138E+04  HDC001301S4040      
 HD   C      1   2.23791E+04   1.76138E+04  HDC001501S4042      
 HD   C      1   2.23791E+04   1.76138E+04  HDC001501S4043      
 HD   C      1   2.23791E+04   1.76138E+04  HDC001701S4044      
 HD   C      1   2.23791E+04   1.76138E+04  HDC001601S4047      
 HD   C      1   2.23791E+04   1.76138E+04  HDC001501S4048      
 HD   C      1   2.23791E+04   1.76138E+04  HDC001801S4049      
 HD   C      1   2.23791E+04   1.76138E+04  HDC001301S4050      
 HD   C      1   2.23791E+04   1.76138E+04  HDC001601S4051      
 HD   C      1   2.23791E+04   1.76138E+04  HDC001301S4069      
 HD   C      1   2.55880E+04   1.79292E+04  HDC001601S3335      
 HD   C      1   2.55880E+04   1.79292E+04  HDC001801S3336      
 HD   C      1   2.55880E+04   1.79292E+04  HDC001701S3337      
 HD   C      1   2.55880E+04   1.79292E+04  HDC001101S3338      
 HD   C      1   2.71906E+04   1.80989E+04  HDC001301S3339      
 HD   C      1   2.71906E+04   1.80989E+04  HDC001501S3340      
 HD   C      1   2.71906E+04   1.80989E+04  HDC001101S3350      
 HD   C      1   2.87961E+04   1.82593E+04  HDC001401S3342      
 HD   C      1   2.87961E+04   1.82593E+04  HDC001401S3343      
 HD   C      1   2.87961E+04   1.82593E+04  HDC001701S3344      
 HD   C      1   2.87961E+04   1.82593E+04  HDC001701S3347      
 HD   C      1   2.87961E+04   1.82593E+04  HDC001101S3348      
 HD   C      1   2.87961E+04   1.82593E+04  HDC001501S3349      
 HD   C      1   2.87961E+04   1.82593E+04  HDC001401S3351      
 HD   C      1   3.04267E+04   1.87063E+04  HDC001306S4264      
 HD   C      1   2.12258E+04   1.85326E+04  HDC001202S4264      
 HD   C      1   3.34487E+04   1.88479E+04  HDC001703S4564      
 HD   C      1   3.34487E+04   1.88479E+04  HDC001803S4566      
 HD   C      1   3.34487E+04   1.88479E+04  HDC001403S4567      
 HD   C      1   3.22825E+04   1.88236E+04  HDC001201S4164      
 HD   C      1   3.14166E+04   1.88052E+04  HDC001701S4464      
 HD   C      1   3.14166E+04   1.88052E+04  HDC001601S4466      
 HD   C      1   2.95263E+04   1.87737E+04  HDC001401S4364      
 HD   C      1   2.95263E+04   1.87737E+04  HDC001501S4366      
 HD   C      1   2.81601E+04   1.87468E+04  HDC001501S4664      
 HD   C      1   2.81601E+04   1.87468E+04  HDC001601S4666      
 HD   C      1   2.66869E+04   1.87186E+04  HDC001201S4167      
 HD   C      1   2.65266E+04   1.87227E+04  HDC001402S2864      
 HD   C      1   2.62236E+04   1.87103E+04  HDC001602S4064      
 HD   C      1   2.53202E+04   1.86933E+04  HDC001201S4564      
 HD   C      1   2.53202E+04   1.86933E+04  HDC001301S4566      
 HD   C      1   2.53202E+04   1.86933E+04  HDC001501S4567      
 HD   C      1   2.40940E+04   1.86760E+04  HDC001501S4264      
 HD   C      1   2.19645E+04   1.86363E+04  HDC001701S5364      
 HD   C      1   2.19645E+04   1.86363E+04  HDC001501S5366      
 HD   C      1   2.19645E+04   1.86363E+04  HDC001701S5367      
 HD   C      1   2.19645E+04   1.86363E+04  HDC001201S5368      
 HD   C      1   2.02891E+04   1.86137E+04  HDC001301S4367      
 HD   C      1   1.95904E+04   1.86009E+04  HDC001201S6364      
 HD   C      1   1.95904E+04   1.86009E+04  HDC001501S6366      
 HD   C      1   1.95904E+04   1.86009E+04  HDC001301S6367      
 HD   C      1   1.95904E+04   1.86009E+04  HDC001801S6368      
 HD   C      1   1.95904E+04   1.86009E+04  HDC001501S6369      
 HD   C      1   1.76371E+04   1.85708E+04  HDC001702S4164      
 HD   C      1   3.58162E+04   1.92158E+04  HDC001201S11056     
 HD   C      1   3.58162E+04   1.92158E+04  HDC001201S11057     
 HD   C      1   3.58162E+04   1.92158E+04  HDC001801S11060     
 HD   C      1   3.58162E+04   1.92158E+04  HDC001101S11061     
 HD   C      1   3.58162E+04   1.92158E+04  HDC001401S11062     
 HD   C      1   3.58162E+04   1.92158E+04  HDC001301S11063     
 HD   C      1   3.58162E+04   1.92158E+04  HDC001201S11064     
 HD   C      1   3.58162E+04   1.92158E+04  HDC001301S11065     
 HD   C      1   3.58162E+04   1.92158E+04  HDC001601S11066     
 HD   C      1   3.58162E+04   1.92158E+04  HDC001101S11067     
 HD   C      1   3.58162E+04   1.92158E+04  HDC001401S11068     
 HD   C      1   3.58162E+04   1.92158E+04  HDC001501S11069     
 HD   C      1   3.58162E+04   1.92158E+04  HDC001801S11070     
 HD   C      1   3.58162E+04   1.92158E+04  HDC001601S11071     
 HD   C      1   3.58162E+04   1.92158E+04  HDC001201S11072     
 HD   C      1   3.58162E+04   1.92158E+04  HDC001601S11073     
 HD   C      1   3.58162E+04   1.92158E+04  HDC001301S11074     
 HD   C      1   3.58162E+04   1.92158E+04  HDC001401S11075     
 HD   C      1   3.58162E+04   1.92158E+04  HDC001201S11076     
 HD   C      1   3.58162E+04   1.92158E+04  HDC001401S11077     
 HD   C      1   3.64146E+04   1.94712E+04  HDC001402S2620      
 HD   C      1   3.64146E+04   1.94712E+04  HDC001202S2621      
 HD   C      1   3.64146E+04   1.94712E+04  HDC001802S2622      
 HD   C      1   2.71698E+04   1.92945E+04  HDC001701S3047      
 HD   C      1   2.71698E+04   1.92945E+04  HDC001301S3049      
 HD   C      1   2.71698E+04   1.92945E+04  HDC001701S3050      
 HD   C      1   2.71698E+04   1.92945E+04  HDC001701S3051      
 HD   C      1   2.71698E+04   1.92945E+04  HDC001801S3052      
 HD   C      1   2.71698E+04   1.92945E+04  HDC001601S3053      
 HD   C      1   2.71698E+04   1.92945E+04  HDC001501S3054      
 HD   C      1   2.71698E+04   1.92945E+04  HDC001101S3055      
 HD   C      1   2.71698E+04   1.92945E+04  HDC001301S3056      
 HD   C      1   3.46043E+04   1.95777E+04  HDC001701S9664      
 HD   C      1   3.46043E+04   1.95777E+04  HDC001401S9668      
 HD   C      1   3.46043E+04   1.95777E+04  HDC001301S9669      
 HD   C      1   3.46043E+04   1.95777E+04  HDC001701S9670      
 HD   C      1   3.46043E+04   1.95777E+04  HDC001101S9671      
 HD   C      1   3.46043E+04   1.95777E+04  HDC001301S9672      
 HD   C      1   3.46043E+04   1.95777E+04  HDC001101S9673      
 HD   C      1   3.46043E+04   1.95777E+04  HDC001401S9674      
 HD   C      1   3.46043E+04   1.95777E+04  HDC001401S9675      
 HD   C      1   3.46043E+04   1.95777E+04  HDC001801S9676      
 HD   C      1   3.46043E+04   1.95777E+04  HDC001801S9677      
 HD   C      1   1.74518E+04   1.93618E+04  HDC001201S3322      
 HD   C      1   1.74518E+04   1.93618E+04  HDC001701S3366      
 HD   C      1   1.74518E+04   1.93618E+04  HDC001701S3368      
 HD   C      1   1.74518E+04   1.93618E+04  HDC001801S3369      
 HD   C      1   1.74518E+04   1.93618E+04  HDC001701S3371      
 HD   C      1   1.74518E+04   1.93618E+04  HDC001501S3373      
 HD   C      1   1.74518E+04   1.93618E+04  HDC001701S3374      
 HD   C      1   1.74518E+04   1.93618E+04  HDC001601S3375      
 HD   C      1   1.74518E+04   1.93618E+04  HDC001601S3376      
 HD   C      1   4.48264E+04   2.00817E+04  HDC001401S4070      
 HD   C      1   4.48264E+04   2.00817E+04  HDC001401S4071      
 HD   C      1   4.48264E+04   2.00817E+04  HDC001101S4072      
 HD   C      1   4.48264E+04   2.00817E+04  HDC001101S4073      
 HD   C      1   4.48264E+04   2.00817E+04  HDC001801S4074      
 HD   C      1   4.48264E+04   2.00817E+04  HDC001701S4075      
 HD   C      1   4.48264E+04   2.00817E+04  HDC001801S4076      
 HD   C      1   4.48264E+04   2.00817E+04  HDC001501S4077      
 HD   C      1   3.59357E+04   2.00513E+04  HDC001704S4264      
 HD   C      1   3.59124E+04   2.01082E+04  HDC001603S4864      
 HD   C      1   3.59124E+04   2.01082E+04  HDC001503S4867      
 HD   C      1   4.79194E+04   2.06091E+04  HDC001503S4367      
 HD   C      1   4.79194E+04   2.06091E+04  HDC001603S4369      
 HD   C      1   4.79194E+04   2.06091E+04  HDC001603S4370      
 HD   C      1   4.79194E+04   2.06091E+04  HDC001103S4371      
 HD   C      1   4.79194E+04   2.06091E+04  HDC001203S4372      
 HD   C      1   4.79194E+04   2.06091E+04  HDC001403S4373      
 HD   C      1   4.79194E+04   2.06091E+04  HDC001203S4374      
 HD   C      1   4.79194E+04   2.06091E+04  HDC001503S4375      
 HD   C      1   4.79194E+04   2.06091E+04  HDC001703S4376      
 HD   C      1   4.79194E+04   2.06091E+04  HDC001803S4377      
 HD   C      1   5.05726E+04   2.06805E+04  HDC001304S4164      
 HD   C      1   4.79052E+04   2.06153E+04  HDC001802S5656      
 HD   C      1   4.79052E+04   2.06153E+04  HDC001202S5657      
 HD   C      1   4.79052E+04   2.06153E+04  HDC001402S5663      
 HD   C      1   4.79052E+04   2.06153E+04  HDC001502S5667      
 HD   C      1   4.79052E+04   2.06153E+04  HDC001702S5668      
 HD   C      1   4.79052E+04   2.06153E+04  HDC001202S5669      
 HD   C      1   4.79052E+04   2.06153E+04  HDC001402S5670      
 HD   C      1   4.79052E+04   2.06153E+04  HDC001702S5671      
 HD   C      1   4.79052E+04   2.06153E+04  HDC001502S5672      
 HD   C      1   4.79052E+04   2.06153E+04  HDC001602S5673      
 HD   C      1   4.79052E+04   2.06153E+04  HDC001602S5674      
 HD   C      1   4.79052E+04   2.06153E+04  HDC001102S5675      
 HD   C      1   4.79052E+04   2.06153E+04  HDC001202S5676      
 HD   C      1   4.79052E+04   2.06153E+04  HDC001702S5677      
 HD   C      1   4.91560E+04   2.06866E+04  HDC001601S3364      
 HD   C      1   5.04656E+04   2.08009E+04  HDC001303S4164      
 HD   C      1   5.03717E+04   2.10039E+04  HDC001201S4667      
 HD   C      1   5.61972E+04   2.13155E+04  HDC001501S3656      
 HD   C      1   5.61972E+04   2.13155E+04  HDC001101S3662      
 HD   C      1   5.02985E+04   2.12365E+04  HDC001701S4764      
 HD   C      1   5.02985E+04   2.12365E+04  HDC001701S4767      
 HD   C      1   2.72458E+04   2.08057E+04  HDC001301S4635      
 HD   C      1   2.72458E+04   2.08057E+04  HDC001401S4636      
 HD   C      1   2.72458E+04   2.08057E+04  HDC001601S4637      
 HD   C      1   2.72458E+04   2.08057E+04  HDC001101S4638      
 HD   C      1   3.35724E+04   2.09566E+04  HDC001201S3147      
 HD   C      1   3.35724E+04   2.09566E+04  HDC001101S3149      
 HD   C      1   3.35724E+04   2.09566E+04  HDC001801S3150      
 HD   C      1   3.35724E+04   2.09566E+04  HDC001401S3151      
 HD   C      1   3.35724E+04   2.09566E+04  HDC001801S3152      
 HD   C      1   3.35724E+04   2.09566E+04  HDC001101S3153      
 HD   C      1   3.35724E+04   2.09566E+04  HDC001101S3154      
 HD   C      1   3.35724E+04   2.09566E+04  HDC001701S3155      
 HD   C      1   3.35724E+04   2.09566E+04  HDC001301S3156      
 HD   C      1   2.39385E+04   2.07753E+04  HDC001401S5635      
 HD   C      1   2.39385E+04   2.07753E+04  HDC001601S5636      
 HD   C      1   2.39385E+04   2.07753E+04  HDC001101S5637      
 HD   C      1   2.39385E+04   2.07753E+04  HDC001601S5638      
 HD   C      1   2.39385E+04   2.07753E+04  HDC001701S5639      
 HD   C      1   2.39385E+04   2.07753E+04  HDC001501S5640      
 HD   C      1   2.39385E+04   2.07753E+04  HDC001701S5642      
 HD   C      1   2.39385E+04   2.07753E+04  HDC001501S5643      
 HD   C      1   2.39385E+04   2.07753E+04  HDC001201S5644      
 HD   C      1   2.39385E+04   2.07753E+04  HDC001401S5647      
 HD   C      1   2.39385E+04   2.07753E+04  HDC001801S5648      
 HD   C      1   2.39385E+04   2.07753E+04  HDC001101S5650      
 HD   C      1   2.39385E+04   2.07753E+04  HDC001801S5651      
 HD   C      1   2.39385E+04   2.07753E+04  HDC001201S5652      
 HD   C      1   2.39385E+04   2.07753E+04  HDC001301S5653      
 HD   C      1   2.39385E+04   2.07753E+04  HDC001201S5654      
 HD   C      1   2.39385E+04   2.07753E+04  HDC001101S5655      
 HD   C      1   2.39385E+04   2.07753E+04  HDC001701S5656      
 HD   C      1   5.08533E+04   2.13194E+04  HDC001801S6852      
 HD   C      1   5.08533E+04   2.13194E+04  HDC001301S6856      
 HD   C      1   5.08533E+04   2.13194E+04  HDC001701S6857      
 HD   C      1   5.08533E+04   2.13194E+04  HDC001401S6865      
 HD   C      1   5.08533E+04   2.13194E+04  HDC001801S6866      
 HD   C      1   5.08533E+04   2.13194E+04  HDC001801S6867      
 HD   C      1   5.08533E+04   2.13194E+04  HDC001501S6868      
 HD   C      1   5.08533E+04   2.13194E+04  HDC001501S6869      
 HD   C      1   5.08533E+04   2.13194E+04  HDC001601S6870      
 HD   C      1   5.08533E+04   2.13194E+04  HDC001501S6871      
 HD   C      1   5.08533E+04   2.13194E+04  HDC001301S6872      
 HD   C      1   5.08533E+04   2.13194E+04  HDC001801S6873      
 HD   C      1   5.08533E+04   2.13194E+04  HDC001401S6874      
 HD   C      1   5.08533E+04   2.13194E+04  HDC001201S6875      
 HD   C      1   5.08533E+04   2.13194E+04  HDC001201S6876      
 HD   C      1   5.08533E+04   2.13194E+04  HDC001101S6877      
 HD   C      1   3.19799E+04   2.09549E+04  HDC001502S3247      
 HD   C      1   3.19799E+04   2.09549E+04  HDC001102S3249      
 HD   C      1   3.19799E+04   2.09549E+04  HDC001702S3250      
 HD   C      1   3.19799E+04   2.09549E+04  HDC001802S3251      
 HD   C      1   3.19799E+04   2.09549E+04  HDC001802S3252      
 HD   C      1   3.19799E+04   2.09549E+04  HDC001802S3253      
 HD   C      1   3.19799E+04   2.09549E+04  HDC001102S3254      
 HD   C      1   3.19799E+04   2.09549E+04  HDC001302S3255      
 HD   C      1   3.19799E+04   2.09549E+04  HDC001402S3256      
 HD   C      1   2.87548E+04   2.08956E+04  HDC001701S5535      
 HD   C      1   2.87548E+04   2.08956E+04  HDC001201S5536      
 HD   C      1   2.87548E+04   2.08956E+04  HDC001401S5537      
 HD   C      1   2.87548E+04   2.08956E+04  HDC001201S5538      
 HD   C      1   2.87548E+04   2.08956E+04  HDC001701S5539      
 HD   C      1   2.87548E+04   2.08956E+04  HDC001601S5540      
 HD   C      1   2.87548E+04   2.08956E+04  HDC001401S5542      
 HD   C      1   2.87548E+04   2.08956E+04  HDC001701S5543      
 HD   C      1   2.87548E+04   2.08956E+04  HDC001601S5544      
 HD   C      1   2.87548E+04   2.08956E+04  HDC001801S5547      
 HD   C      1   2.87548E+04   2.08956E+04  HDC001601S5548      
 HD   C      1   2.87548E+04   2.08956E+04  HDC001301S5549      
 HD   C      1   2.87548E+04   2.08956E+04  HDC001501S5550      
 HD   C      1   2.87548E+04   2.08956E+04  HDC001401S5551      
 HD   C      1   2.87548E+04   2.08956E+04  HDC001201S5552      
 HD   C      1   2.87548E+04   2.08956E+04  HDC001301S5553      
 HD   C      1   2.87548E+04   2.08956E+04  HDC001101S5554      
 HD   C      1   2.87548E+04   2.08956E+04  HDC001401S5555      
 HD   C      1   2.87548E+04   2.08956E+04  HDC001601S5556      
 HD   C      1   2.55234E+04   2.09893E+04  HDC001102S5218      
 HD   C      1   2.55234E+04   2.09893E+04  HDC001402S5235      
 HD   C      1   2.55234E+04   2.09893E+04  HDC001602S5236      
 HD   C      1   2.55234E+04   2.09893E+04  HDC001802S5237      
 HD   C      1   2.55234E+04   2.09893E+04  HDC001202S5238      
 HD   C      1   2.55234E+04   2.09893E+04  HDC001802S5239      
 HD   C      1   2.55234E+04   2.09893E+04  HDC001302S5240      
 HD   C      1   2.55234E+04   2.09893E+04  HDC001502S5242      
 HD   C      1   2.55234E+04   2.09893E+04  HDC001402S5243      
 HD   C      1   2.55234E+04   2.09893E+04  HDC001802S5244      
 HD   C      1   2.55234E+04   2.09893E+04  HDC001502S5247      
 HD   C      1   2.55234E+04   2.09893E+04  HDC001202S5248      
 HD   C      1   2.55234E+04   2.09893E+04  HDC001102S5250      
 HD   C      1   2.55234E+04   2.09893E+04  HDC001202S5251      
 HD   C      1   2.55234E+04   2.09893E+04  HDC001202S5252      
 HD   C      1   2.55234E+04   2.09893E+04  HDC001702S5253      
 HD   C      1   2.55234E+04   2.09893E+04  HDC001202S5254      
 HD   C      1   2.55234E+04   2.09893E+04  HDC001202S5255      
 HD   C      1   2.55234E+04   2.09893E+04  HDC001702S5256      
 HD   C      1   4.57382E+04   2.21005E+04  HDC001803S4264      
 HD   C      1   3.83589E+04   2.21828E+04  HDC001501S4964      
 HD   C      1   3.83589E+04   2.21828E+04  HDC001201S4967      
 HD   C      1   3.91746E+04   2.24729E+04  HDC001501S12545     
 HD   C      1   3.91746E+04   2.24729E+04  HDC001701S12559     
 HD   C      1   3.91746E+04   2.24729E+04  HDC001401S12560     
 HD   C      1   3.91746E+04   2.24729E+04  HDC001301S12561     
 HD   C      1   3.91746E+04   2.24729E+04  HDC001101S12562     
 HD   C      1   3.91746E+04   2.24729E+04  HDC001401S12563     
 HD   C      1   3.91746E+04   2.24729E+04  HDC001101S12564     
 HD   C      1   3.91746E+04   2.24729E+04  HDC001201S12565     
 HD   C      1   3.91746E+04   2.24729E+04  HDC001701S12566     
 HD   C      1   3.91746E+04   2.24729E+04  HDC001701S12567     
 HD   C      1   3.91746E+04   2.24729E+04  HDC001601S12568     
 HD   C      1   3.91746E+04   2.24729E+04  HDC001601S12569     
 HD   C      1   3.91746E+04   2.24729E+04  HDC001801S12570     
 HD   C      1   3.91746E+04   2.24729E+04  HDC001101S12571     
 HD   C      1   3.91746E+04   2.24729E+04  HDC001201S12572     
 HD   C      1   3.91746E+04   2.24729E+04  HDC001801S12573     
 HD   C      1   3.91746E+04   2.24729E+04  HDC001101S12574     
 HD   C      1   3.91746E+04   2.24729E+04  HDC001701S12575     
 HD   C      1   3.91746E+04   2.24729E+04  HDC001501S12576     
 HD   C      1   3.91746E+04   2.24729E+04  HDC001201S12577     
 HD   C      1   5.67648E+04   2.30030E+04  HDC001101S5224      
 HD   C      1   5.67648E+04   2.30030E+04  HDC001401S5225      
 HD   C      1   5.67648E+04   2.30030E+04  HDC001201S5226      
 HD   C      1   5.67648E+04   2.30030E+04  HDC001101S5227      
 HD   C      1   5.67648E+04   2.30030E+04  HDC001801S5228      
 HD   C      1   5.67648E+04   2.30030E+04  HDC001301S5229      
 HD   C      1   5.67648E+04   2.30030E+04  HDC001501S5230      
 HD   C      1   5.67648E+04   2.30030E+04  HDC001401S5231      
 HD   C      1   5.67648E+04   2.30030E+04  HDC001701S5232      
 HD   C      1   5.67648E+04   2.30030E+04  HDC001301S5233      
 HD   C      1   4.21440E+04   2.27462E+04  HDC001601S4064      
 HD   C      1   4.21440E+04   2.27462E+04  HDC001201S4067      
 HD   C      1   3.10441E+04   2.25463E+04  HDC001701S3825      
 HD   C      1   3.10441E+04   2.25463E+04  HDC001801S3856      
 HD   C      1   3.10441E+04   2.25463E+04  HDC001201S3863      
 HD   C      1   3.10441E+04   2.25463E+04  HDC001701S3868      
 HD   C      1   3.10441E+04   2.25463E+04  HDC001801S3869      
 HD   C      1   3.10441E+04   2.25463E+04  HDC001701S3871      
 HD   C      1   3.10441E+04   2.25463E+04  HDC001801S3873      
 HD   C      1   3.10441E+04   2.25463E+04  HDC001701S3874      
 HD   C      1   3.10441E+04   2.25463E+04  HDC001701S3875      
 HD   C      1   3.10441E+04   2.25463E+04  HDC001701S3876      
 HD   C      1   4.74073E+04   2.29950E+04  HDC001401S13557     
 HD   C      1   4.74073E+04   2.29950E+04  HDC001301S13559     
 HD   C      1   4.74073E+04   2.29950E+04  HDC001701S13560     
 HD   C      1   4.74073E+04   2.29950E+04  HDC001401S13561     
 HD   C      1   4.74073E+04   2.29950E+04  HDC001201S13562     
 HD   C      1   4.74073E+04   2.29950E+04  HDC001301S13563     
 HD   C      1   4.74073E+04   2.29950E+04  HDC001801S13564     
 HD   C      1   4.74073E+04   2.29950E+04  HDC001601S13565     
 HD   C      1   4.74073E+04   2.29950E+04  HDC001201S13566     
 HD   C      1   4.74073E+04   2.29950E+04  HDC001301S13567     
 HD   C      1   4.74073E+04   2.29950E+04  HDC001101S13568     
 HD   C      1   4.74073E+04   2.29950E+04  HDC001101S13569     
 HD   C      1   4.74073E+04   2.29950E+04  HDC001601S13570     
 HD   C      1   4.74073E+04   2.29950E+04  HDC001101S13571     
 HD   C      1   4.74073E+04   2.29950E+04  HDC001501S13572     
 HD   C      1   4.74073E+04   2.29950E+04  HDC001401S13573     
 HD   C      1   4.74073E+04   2.29950E+04  HDC001101S13574     
 HD   C      1   4.74073E+04   2.29950E+04  HDC001501S13575     
 HD   C      1   4.74073E+04   2.29950E+04  HDC001801S13576     
 HD   C      1   4.74073E+04   2.29950E+04  HDC001201S13577     
 HD   C      1   3.99065E+04   2.30061E+04  HDC001302S6164      
 HD   C      1   3.99065E+04   2.30061E+04  HDC001802S6167      
 HD   C      1   3.99065E+04   2.30061E+04  HDC001802S6168      
 HD   C      1   3.99065E+04   2.30061E+04  HDC001702S6169      
 HD   C      1   3.99175E+04   2.30146E+04  HDC001103S5964      
 HD   C      1   3.99175E+04   2.30146E+04  HDC001303S5967      
 HD   C      1   3.99175E+04   2.30146E+04  HDC001703S5968      
 HD   C      1   3.99175E+04   2.30146E+04  HDC001303S5969      
 HD   C      1   3.99175E+04   2.30146E+04  HDC001303S5970      
 HD   C      1   4.25022E+04   2.32314E+04  HDC001702S4167      
 HD   C      1   4.20150E+04   2.37790E+04  HDC001601S4571      
 HD   C      1   4.20150E+04   2.37790E+04  HDC001301S4572      
 HD   C      1   4.20150E+04   2.37790E+04  HDC001301S4573      
 HD   C      1   4.20150E+04   2.37790E+04  HDC001101S4574      
 HD   C      1   4.20150E+04   2.37790E+04  HDC001801S4575      
 HD   C      1   4.20150E+04   2.37790E+04  HDC001301S4576      
 HD   C      1   4.20150E+04   2.37790E+04  HDC001801S4577      
 HD   C      1   4.12443E+04   2.40207E+04  HDC001301S5557      
 HD   C      1   4.12443E+04   2.40207E+04  HDC001501S5563      
 HD   C      1   4.12443E+04   2.40207E+04  HDC001701S5568      
 HD   C      1   4.12443E+04   2.40207E+04  HDC001501S5569      
 HD   C      1   4.12443E+04   2.40207E+04  HDC001801S5570      
 HD   C      1   4.12443E+04   2.40207E+04  HDC001201S5571      
 HD   C      1   4.12443E+04   2.40207E+04  HDC001601S5572      
 HD   C      1   4.12443E+04   2.40207E+04  HDC001801S5573      
 HD   C      1   4.12443E+04   2.40207E+04  HDC001301S5574      
 HD   C      1   4.12443E+04   2.40207E+04  HDC001101S5575      
 HD   C      1   4.12443E+04   2.40207E+04  HDC001101S5576      
 HD   C      1   4.12443E+04   2.40207E+04  HDC001201S5577      
 HD   C      1   4.16426E+04   2.40935E+04  HDC001202S4464      
 HD   C      1   4.16426E+04   2.40935E+04  HDC001802S4467      
 HD   C      1   4.18103E+04   2.41834E+04  HDC001503S6464      
 HD   C      1   4.18103E+04   2.41834E+04  HDC001803S6467      
 HD   C      1   4.18103E+04   2.41834E+04  HDC001503S6468      
 HD   C      1   4.18103E+04   2.41834E+04  HDC001203S6469      
 HD   C      1   4.18103E+04   2.41834E+04  HDC001403S6471      
 HD   C      1   4.18103E+04   2.41834E+04  HDC001403S6473      
 HD   C      1   4.18103E+04   2.41834E+04  HDC001803S6474      
 HD   C      1   4.18103E+04   2.41834E+04  HDC001103S6475      
 HD   C      1   4.18877E+04   2.42324E+04  HDC001201S4467      
 HD   C      1   2.96861E+04   2.43304E+04  HDC001301S3121      
 HD   C      1   2.96861E+04   2.43304E+04  HDC001801S3168      
 HD   C      1   2.96861E+04   2.43304E+04  HDC001201S3169      
 HD   C      1   2.96861E+04   2.43304E+04  HDC001601S3171      
 HD   C      1   2.96861E+04   2.43304E+04  HDC001801S3173      
 HD   C      1   2.96861E+04   2.43304E+04  HDC001701S3174      
 HD   C      1   2.96861E+04   2.43304E+04  HDC001401S3175      
 HD   C      1   4.46258E+04   2.48969E+04  HDC001401S5657      
 HD   C      1   4.46258E+04   2.48969E+04  HDC001201S5668      
 HD   C      1   4.46258E+04   2.48969E+04  HDC001401S5669      
 HD   C      1   4.46258E+04   2.48969E+04  HDC001601S5670      
 HD   C      1   4.46258E+04   2.48969E+04  HDC001201S5671      
 HD   C      1   4.46258E+04   2.48969E+04  HDC001401S5672      
 HD   C      1   4.46258E+04   2.48969E+04  HDC001801S5673      
 HD   C      1   4.46258E+04   2.48969E+04  HDC001101S5674      
 HD   C      1   4.46258E+04   2.48969E+04  HDC001701S5675      
 HD   C      1   4.46258E+04   2.48969E+04  HDC001201S5676      
 HD   C      1   4.46258E+04   2.48969E+04  HDC001401S5677      
 HD   C      1   4.44584E+04   2.71152E+04  HDC001101S7222      
 HD   C      1   4.44584E+04   2.71152E+04  HDC001701S7256      
 HD   C      1   4.44584E+04   2.71152E+04  HDC001701S7257      
 HD   C      1   4.44584E+04   2.71152E+04  HDC001201S7266      
 HD   C      1   4.44584E+04   2.71152E+04  HDC001401S7267      
 HD   C      1   4.44584E+04   2.71152E+04  HDC001701S7268      
 HD   C      1   4.44584E+04   2.71152E+04  HDC001601S7269      
 HD   C      1   4.44584E+04   2.71152E+04  HDC001601S7270      
 HD   C      1   4.44584E+04   2.71152E+04  HDC001801S7271      
 HD   C      1   4.44584E+04   2.71152E+04  HDC001501S7272      
 HD   C      1   4.44584E+04   2.71152E+04  HDC001401S7273      
 HD   C      1   4.44584E+04   2.71152E+04  HDC001701S7274      
 HD   C      1   4.44584E+04   2.71152E+04  HDC001601S7275      
 HD   C      1   4.44584E+04   2.71152E+04  HDC001801S7276      
 HD   C      1   2.57432E+04   2.77172E+04  HDC001501S3247      
 HD   C      1   2.57432E+04   2.77172E+04  HDC001601S3249      
 HD   C      1   2.57432E+04   2.77172E+04  HDC001201S3250      
 HD   C      1   2.57432E+04   2.77172E+04  HDC001701S3251      
 HD   C      1   2.57432E+04   2.77172E+04  HDC001401S3252      
 HD   C      1   2.57432E+04   2.77172E+04  HDC001701S3253      
 HD   C      1   2.57432E+04   2.77172E+04  HDC001601S3254      
 HD   C      1   2.57432E+04   2.77172E+04  HDC001801S3255      
 HD   C      1   2.57432E+04   2.77172E+04  HDC001601S3256      
 HD   C      1   1.44029E+04   3.26266E+04  HDC001101S2820      
 HD   C      1   1.44029E+04   3.26266E+04  HDC001201S2821      
 HD   C      1   1.44029E+04   3.26266E+04  HDC001301S2822      
 HD   C      1   1.97674E+04   3.40403E+04  HDC001501S3020      
 HD   C      1   1.97674E+04   3.40403E+04  HDC001501S3021      
 HD   C      1   1.97674E+04   3.40403E+04  HDC001701S3022      
1
                            STRESS PERIOD NO.    1, LENGTH =   1.000000    
                            -----------------------------------------------

                              NUMBER OF TIME STEPS =     1

                               MULTIPLIER FOR DELT =     1.000

                            INITIAL TIME STEP SIZE =   1.000000    

 OPENING FILE ON UNIT   99:
 ./WEL_0000.dat                                                                                                                                                                                          

 WELL NO.  LAYER   ROW   COL   STRESS RATE         
 --------------------------------------------------
      1      1    108    157       0.000    
      2      1    107    160       0.000    
      3      1    120    141       0.000    
      4      1    103    169       0.000    

      4 WELLS

 OPENING FILE ON UNIT   99:
 ./DRN_0000.dat                                                                                                                                                                                          

 DRAIN NO.  LAYER   ROW   COL     DRAIN EL.  CONDUCTANCE         
 ----------------------------------------------------------------
      1      1    116    263       3.185          0.1000E+05
      2      1    116    264      -2.275          0.1000E+05
      3      1    117    263       3.726          0.1000E+05
      4      1    118    262       3.027          0.1000E+05
      5      1    118    263       5.219          0.1000E+05
      6      1    119    262       4.194          0.1000E+05
      7      1    120    261       15.97          0.1000E+05
      8      1    120    262       12.32          0.1000E+05
      9      1    121    260       18.57          0.1000E+05
     10      1    121    261       17.94          0.1000E+05
     11      1    122    260       20.02          0.1000E+05
     12      1    123    259       21.01          0.1000E+05
     13      1    123    260       20.98          0.1000E+05
     14      1    124    259       20.69          0.1000E+05
     15      1    125    258       21.38          0.1000E+05
     16      1    125    259       21.12          0.1000E+05
     17      1    126    258       19.88          0.1000E+05
     18      1    127    257       21.89          0.1000E+05
     19      1    127    258       20.43          0.1000E+05
     20      1    128    257       22.44          0.1000E+05
     21      1    129    256       21.31          0.1000E+05
     22      1    129    257       20.80          0.1000E+05
     23      1    130    256       20.11          0.1000E+05
     24      1    131    255       7.565          0.1000E+05
     25      1    131    256       18.18          0.1000E+05
     26      1    132    255       2.610          0.1000E+05
     27      1    133    254      -4.187          0.1000E+05
     28      1    133    255       1.007          0.1000E+05
     29      1    134    254      -2.534          0.1000E+05
     30      1    135    253      -3.989          0.1000E+05
     31      1    135    254     -0.6291          0.1000E+05
     32      1    136    252      -3.597          0.1000E+05
     33      1    136    253     -0.3055          0.1000E+05
     34      1    137    252      -3.695          0.1000E+05
     35      1    138    251      -2.408          0.1000E+05
     36      1    138    252     -0.9729          0.1000E+05
     37      1    139    251      -2.734          0.1000E+05
     38      1    140    250      -4.191          0.1000E+05
     39      1    140    251      -4.450          0.1000E+05
     40      1    141    250      -4.400          0.1000E+05
     41      1    142    249      -5.504          0.1000E+05
     42      1    142    250      -5.064          0.1000E+05
     43      1    143    249      -5.901          0.1000E+05
     44      1    144    248      -6.408          0.1000E+05
     45      1    144    249      -5.221          0.1000E+05
     46      1    145    248      -6.278          0.1000E+05
     47      1    146    247      -6.028          0.1000E+05
     48      1    146    248      -5.722          0.1000E+05
     49      1    147    247      -6.056          0.1000E+05
     50      1    148    246      -6.052          0.1000E+05
     51      1    148    247      -5.917          0.1000E+05
     52      1    149    246      -6.194          0.1000E+05
     53      1    150    245      -5.376          0.1000E+05
     54      1    150    246      -4.915          0.1000E+05
     55      1    151    245      -5.731          0.1000E+05
     56      1    152    245      -7.879          0.1000E+05
     57      1    153    245      -8.038          0.1000E+05
     58      1    154    244      -7.811          0.1000E+05
     59      1    154    245      -7.028          0.1000E+05
     60      1    155    244      -7.866          0.1000E+05
     61      1    156    244      -7.403          0.1000E+05
     62      1    157    243      -7.241          0.1000E+05
     63      1    157    244      -6.392          0.1000E+05
     64      1    158    243      -8.122          0.1000E+05
     65      1    159    243      -8.023          0.1000E+05
     66      1    160    243      -7.110          0.1000E+05
     67      1    161    242      -7.761          0.1000E+05
     68      1    161    243      -7.064          0.1000E+05
     69      1    162    242      -8.758          0.1000E+05
     70      1    163    242      -8.179          0.1000E+05
     71      1    164    241      -9.074          0.1000E+05
     72      1    164    242      -3.746          0.1000E+05
     73      1    165    241      -8.908          0.1000E+05
     74      1    166    241      -9.021          0.1000E+05
     75      1    167    240      -10.50          0.1000E+05
     76      1    167    241      -7.246          0.1000E+05
     77      1    168    240      -8.554          0.1000E+05
     78      1    169    240      -4.110          0.1000E+05
     79      1    170    240      -4.174          0.1000E+05
     80      1    171    239      -11.05          0.1000E+05
     81      1    171    240      -8.891          0.1000E+05
     82      1    172    239      -11.56          0.1000E+05
     83      1    173    239      -12.11          0.1000E+05
     84      1    174    238      -12.60          0.1000E+05
     85      1    174    239      -12.26          0.1000E+05
     86      1    175    238      -12.22          0.1000E+05
     87      1    176    238      -12.60          0.1000E+05
     88      1    177    238      -12.80          0.1000E+05
     89      1    178    237      -12.32          0.1000E+05
     90      1    178    238      -12.34          0.1000E+05
     91      1    179    237      -12.85          0.1000E+05
     92      1    180    237      -12.67          0.1000E+05
     93      1    181    236      -13.33          0.1000E+05
     94      1    181    237      -12.89          0.1000E+05
     95      1    182    234      -13.53          0.1000E+05
     96      1    182    235      -12.79          0.1000E+05
     97      1    182    236      -12.99          0.1000E+05
     98      1    183    233      -13.01          0.1000E+05
     99      1    183    234      -13.72          0.1000E+05
    100      1    184    231      -12.82          0.1000E+05
    101      1    184    232      -12.99          0.1000E+05
    102      1    184    233      -13.02          0.1000E+05
    103      1    185    230      -13.28          0.1000E+05
    104      1    185    231      -12.90          0.1000E+05
    105      1    186    228      -12.82          0.1000E+05
    106      1    186    229      -12.64          0.1000E+05
    107      1    186    230      -13.11          0.1000E+05
    108      1    187    227      -12.42          0.1000E+05
    109      1    187    228      -12.89          0.1000E+05
    110      1    188    225      -11.65          0.1000E+05
    111      1    188    226      -12.24          0.1000E+05
    112      1    188    227      -13.03          0.1000E+05
    113      1    189    224      -11.78          0.1000E+05
    114      1    189    225      -11.60          0.1000E+05
    115      1    190    222      -12.21          0.1000E+05
    116      1    190    223      -12.26          0.1000E+05
    117      1    190    224      -12.35          0.1000E+05
    118      1    191    221      -11.94          0.1000E+05
    119      1    191    222      -12.15          0.1000E+05
    120      1    192    219      -11.26          0.1000E+05
    121      1    192    220      -10.68          0.1000E+05
    122      1    192    221      -11.64          0.1000E+05
    123      1    193    218      -12.42          0.1000E+05
    124      1    193    219      -11.92          0.1000E+05
    125      1    194    216      -13.10          0.1000E+05
    126      1    194    217      -12.98          0.1000E+05
    127      1    194    218      -12.78          0.1000E+05
    128      1    195     31      -28.15          0.1000E+05
    129      1    195     32      -28.15          0.1000E+05
    130      1    195     33      -28.21          0.1000E+05
    131      1    195     34      -28.26          0.1000E+05
    132      1    195     35      -27.85          0.1000E+05
    133      1    195     36      -28.73          0.1000E+05
    134      1    195     37      -27.93          0.1000E+05
    135      1    195     38      -28.24          0.1000E+05

    135 DRAINS

 OPENING FILE ON UNIT   99:
 ./rech_0.ref                                                                                                                                                                                            



                           RECHARGE
 READING ON UNIT   99 WITH FORMAT: (FREE)              

 OPENING FILE ON UNIT   99:
 ./CHD_0000.dat                                                                                                                                                                                          

 CHD NO.   LAYER   ROW   COL    START HEAD        END HEAD         
 ------------------------------------------------------------------
      1      1      2    102       15.00           15.00    
      2      1      2    103       15.00           15.00    
      3      1      2    104       15.00           15.00    
      4      1      3    104       15.00           15.00    
      5      1      3    105       15.00           15.00    
      6      1      3    106       15.00           15.00    
      7      1      4    106       15.00           15.00    
      8      1      4    107       15.00           15.00    
      9      1      4    108       15.00           15.00    
     10      1      5    108       15.00           15.00    
     11      1      5    109       15.00           15.00    
     12      1      5    110       15.00           15.00    
     13      1      6    110       15.00           15.00    
     14      1      6    111       15.00           15.00    
     15      1      7      9      -3.000          -3.000    
     16      1      7     10      -3.000          -3.000    
     17      1      7     11      -3.000          -3.000    
     18      1      7     12      -3.000          -3.000    
     19      1      7     13      -3.000          -3.000    
     20      1      7     14      -3.000          -3.000    
     21      1      7     15      -3.000          -3.000    
     22      1      7    111       15.00           15.00    
     23      1      7    112       15.00           15.00    
     24      1      7    113       15.00           15.00    
     25      1      8      2      -3.000          -3.000    
     26      1      8      3      -3.000          -3.000    
     27      1      8      4      -3.000          -3.000    
     28      1      8      5      -3.000          -3.000    
     29      1      8      6      -3.000          -3.000    
     30      1      8      7      -3.000          -3.000    
     31      1      8      8      -3.000          -3.000    
     32      1      8      9      -3.000          -3.000    
     33      1      8    113       15.00           15.00    
     34      1      8    114       15.00           15.00    
     35      1      8    115       15.00           15.00    
     36      1      9    115       15.00           15.00    
     37      1      9    116       15.00           15.00    
     38      1      9    117       15.00           15.00    
     39      1     10    117       15.00           15.00    
     40      1     10    118       15.00           15.00    
     41      1     11    118       15.00           15.00    
     42      1     11    119       15.00           15.00    
     43      1     12    119       15.00           15.00    
     44      1     12    120       15.00           15.00    
     45      1     13    120       15.00           15.00    
     46      1     13    121       15.00           15.00    
     47      1     14    121       15.00           15.00    
     48      1     14    122       15.00           15.00    
     49      1     15    122       15.00           15.00    
     50      1     15    123       15.00           15.00    
     51      1     16    123       15.00           15.00    
     52      1     16    124       15.00           15.00    
     53      1     16    125       15.00           15.00    
     54      1     17    125       15.00           15.00    
     55      1     23      2      -3.000          -3.000    
     56      1     24      2      -3.000          -3.000    
     57      1     25      2      -3.000          -3.000    
     58      1     26      2      -3.000          -3.000    
     59      1     27      2      -3.000          -3.000    
     60      1     28      2      -3.000          -3.000    
     61      1     29      2      -3.000          -3.000    
     62      1     30      2      -3.000          -3.000    
     63      1     31      2      -3.000          -3.000    
     64      1     32      2      -3.000          -3.000    
     65      1     33      2      -3.000          -3.000    
     66      1     34      2      -3.000          -3.000    
     67      1     35      2      -3.000          -3.000    
     68      1     36      2      -3.000          -3.000    
     69      1     37      2      -3.000          -3.000    
     70      1     38      2      -3.000          -3.000    
     71      1     39      2      -3.000          -3.000    
     72      1     39      3      -3.000          -3.000    
     73      1     40      3      -3.000          -3.000    
     74      1     41      3      -3.000          -3.000    
     75      1     42      3      -3.000          -3.000    
     76      1     43      3      -3.000          -3.000    
     77      1     44      3      -3.000          -3.000    
     78      1     45      3      -3.000          -3.000    
     79      1     46      3      -3.000          -3.000    
     80      1     47      3      -3.000          -3.000    
     81      1     48      3      -3.000          -3.000    
     82      1     49      3      -3.000          -3.000    
     83      1     50      3      -3.000          -3.000    
     84      1     51      3      -3.000          -3.000    
     85      1     52      3      -3.000          -3.000    
     86      1     53      3      -3.000          -3.000    
     87      1     54      3      -3.000          -3.000    
     88      1     55      3      -3.000          -3.000    
     89      1     56      3      -3.000          -3.000    
     90      1     56      4      -3.000          -3.000    
     91      1     57      4      -3.000          -3.000    
     92      1     58      4      -3.000          -3.000    
     93      1     59      4      -3.000          -3.000    
     94      1     60      4      -3.000          -3.000    
     95      1     61      4      -3.000          -3.000    
     96      1     62      4      -3.000          -3.000    
     97      1     63      4      -3.000          -3.000    
     98      1     64      4      -3.000          -3.000    
     99      1     65      4      -3.000          -3.000    
    100      1     66      4      -3.000          -3.000    
    101      1     67      4      -3.000          -3.000    
    102      1     68      4      -3.000          -3.000    
    103      1     69      4      -3.000          -3.000    
    104      1     70      4      -3.000          -3.000    
    105      1     71      4      -3.000          -3.000    
    106      1     72      4      -3.000          -3.000    
    107      1     72      5      -3.000          -3.000    
    108      1     73      5      -3.000          -3.000    
    109      1     74      5      -3.000          -3.000    
    110      1     75      5      -3.000          -3.000    
    111      1     76      5      -3.000          -3.000    
    112      1     77      5      -3.000          -3.000    
    113      1     78      5      -3.000          -3.000    
    114      1     79      5      -3.000          -3.000    
    115      1     80      5      -3.000          -3.000    
    116      1     81      5      -3.000          -3.000    
    117      1     82      5      -3.000          -3.000    
    118      1     83      5      -3.000          -3.000    
    119      1     84      5      -3.000          -3.000    
    120      1     85      5      -3.000          -3.000    
    121      1     86      5      -3.000          -3.000    
    122      1     87      5      -3.000          -3.000    
    123      1     88      5      -3.000          -3.000    
    124      1     89      5      -3.000          -3.000    
    125      1     89      6      -3.000          -3.000    
    126      1     90      6      -3.000          -3.000    
    127      1     91      6      -3.000          -3.000    
    128      1     92      6      -3.000          -3.000    
    129      1     93      6      -3.000          -3.000    
    130      1     94      6      -3.000          -3.000    
    131      1     95      6      -3.000          -3.000    
    132      1     96      6      -3.000          -3.000    
    133      1     97      6      -3.000          -3.000    
    134      1     98      6      -3.000          -3.000    
    135      1     99      6      -3.000          -3.000    
    136      1    100      6      -3.000          -3.000    
    137      1    101      6      -3.000          -3.000    
    138      1    102      6      -3.000          -3.000    
    139      1    103      6      -3.000          -3.000    
    140      1    104      6      -3.000          -3.000    
    141      1    105      6      -3.000          -3.000    
    142      1    106      6      -3.000          -3.000    
    143      1    106      7      -3.000          -3.000    
    144      1    107      7      -3.000          -3.000    
    145      1    108      7      -3.000          -3.000    
    146      1    109      7      -3.000          -3.000    
    147      1    110      7      -3.000          -3.000    
    148      1    111      7      -3.000          -3.000    
    149      1    112      7      -3.000          -3.000    
    150      1    113      7      -3.000          -3.000    
    151      1    114      7      -3.000          -3.000    
    152      1    115      7      -3.000          -3.000    
    153      1    116      7      -3.000          -3.000    
    154      1    117      7      -3.000          -3.000    
    155      1    118      7      -3.000          -3.000    
    156      1    119      7      -3.000          -3.000    
    157      1    120      7      -3.000          -3.000    
    158      1    121      7      -3.000          -3.000    
    159      1    122      7      -3.000          -3.000    
    160      1    123      7      -3.000          -3.000    
    161      1    123      8      -3.000          -3.000    
    162      1    124      8      -3.000          -3.000    
    163      1    125      8      -3.000          -3.000    
    164      1    126      8      -3.000          -3.000    
    165      1    127      8      -3.000          -3.000    
    166      1    128      8      -3.000          -3.000    
    167      1    129      8      -3.000          -3.000    
    168      1    130      8      -3.000          -3.000    
    169      1    131      8      -3.000          -3.000    
    170      1    132      8      -3.000          -3.000    
    171      1    133      8      -3.000          -3.000    
    172      1    134      8      -3.000          -3.000    
    173      1    135      8      -3.000          -3.000    
    174      1    136      8      -3.000          -3.000    
    175      1    137      8      -3.000          -3.000    
    176      1    138      8      -3.000          -3.000    
    177      1    139      8      -3.000          -3.000    
    178      1    140      8      -3.000          -3.000    
    179      1    140      9      -3.000          -3.000    
    180      1    141      9      -3.000          -3.000    
    181      1    142      9      -3.000          -3.000    
    182      1    143      9      -3.000          -3.000    
    183      1    144      9      -3.000          -3.000    
    184      1    145      9      -3.000          -3.000    
    185      1    146      9      -3.000          -3.000    
    186      1    147      9      -3.000          -3.000    
    187      1    148      9      -3.000          -3.000    
    188      1    149      9      -3.000          -3.000    
    189      1    150      9      -3.000          -3.000    


    189 TIME-VARIANT SPECIFIED-HEAD CELLS
 
 SOLVING FOR HEAD 

    ------------------------------------------------
       NWT REQUIRED           13 OUTER ITERATIONS 
       AND A TOTAL OF        780 INNER ITERATIONS.
    ------------------------------------------------

 OUTPUT CONTROL FOR STRESS PERIOD    1   TIME STEP    1
    SAVE HEAD FOR ALL LAYERS
    SAVE BUDGET
 UBDSV4 SAVING "          DRAINS" ON UNIT  53 AT TIME STEP  1, STRESS PERIOD   1

 HEAD WILL BE SAVED ON UNIT   51 AT END OF TIME STEP    1, STRESS PERIOD    1
1
  VOLUMETRIC BUDGET FOR ENTIRE MODEL AT END OF TIME STEP    1, STRESS PERIOD   1
  ------------------------------------------------------------------------------

     CUMULATIVE VOLUMES      L**3       RATES FOR THIS TIME STEP      L**3/T
     ------------------                 ------------------------

           IN:                                      IN:
           ---                                      ---
             STORAGE     =           0.0000               STORAGE     =           0.0000
       CONSTANT HEAD     =    10044581.0000         CONSTANT HEAD     =    10044581.0000
               WELLS     =           0.0000                 WELLS     =           0.0000
              DRAINS     =           0.0000                DRAINS     =           0.0000
            RECHARGE     =           0.0000              RECHARGE     =           0.0000

                TOTAL IN =    10044581.0000                  TOTAL IN =    10044581.0000

          OUT:                                     OUT:
          ----                                     ----
             STORAGE     =           0.0000               STORAGE     =           0.0000
       CONSTANT HEAD     =     5290472.0000         CONSTANT HEAD     =     5290472.0000
               WELLS     =           0.0000                 WELLS     =           0.0000
              DRAINS     =     4754266.0000                DRAINS     =     4754266.0000
            RECHARGE     =           0.0000              RECHARGE     =           0.0000

               TOTAL OUT =    10044738.0000                 TOTAL OUT =    10044738.0000

                IN - OUT =        -157.0000                  IN - OUT =        -157.0000

     PERCENT DISCREPANCY =          -0.00         PERCENT DISCREPANCY =          -0.00






         TIME SUMMARY AT END OF TIME STEP    1 IN STRESS PERIOD    1
                    SECONDS     MINUTES      HOURS       DAYS        YEARS
                    -----------------------------------------------------------
   TIME STEP LENGTH 3.15576E+07 5.25960E+05  8766.0      365.25      1.0000    
 STRESS PERIOD TIME 3.15576E+07 5.25960E+05  8766.0      365.25      1.0000    
         TOTAL TIME 3.15576E+07 5.25960E+05  8766.0      365.25      1.0000    
1
 A TOTAL OF 431 HYDROGRAPH POINTS HAVE BEEN PREPARED.
1
                            STRESS PERIOD NO.    2, LENGTH =   5.000000    
                            -----------------------------------------------

                              NUMBER OF TIME STEPS =     5

                               MULTIPLIER FOR DELT =     1.000

                            INITIAL TIME STEP SIZE =   1.000000    

 OPENING FILE ON UNIT   99:
 ./WEL_0001.dat                                                                                                                                                                                          

 WELL NO.  LAYER   ROW   COL   STRESS RATE         
 --------------------------------------------------
      1      1    108    157       0.000    
      2      1    107    160       0.000    
      3      1    120    141       0.000    
      4      1    103    169       0.000    

      4 WELLS

 OPENING FILE ON UNIT   99:
 ./DRN_0001.dat                                                                                                                                                                                          

 DRAIN NO.  LAYER   ROW   COL     DRAIN EL.  CONDUCTANCE         
 ----------------------------------------------------------------
      1      1    116    263       3.185          0.1000E+05
      2      1    116    264      -2.275          0.1000E+05
      3      1    117    263       3.726          0.1000E+05
      4      1    118    262       3.027          0.1000E+05
      5      1    118    263       5.219          0.1000E+05
      6      1    119    262       4.194          0.1000E+05
      7      1    120    261       15.97          0.1000E+05
      8      1    120    262       12.32          0.1000E+05
      9      1    121    260       18.57          0.1000E+05
     10      1    121    261       17.94          0.1000E+05
     11      1    122    260       20.02          0.1000E+05
     12      1    123    259       21.01          0.1000E+05
     13      1    123    260       20.98          0.1000E+05
     14      1    124    259       20.69          0.1000E+05
     15      1    125    258       21.38          0.1000E+05
     16      1    125    259       21.12          0.1000E+05
     17      1    126    258       19.88          0.1000E+05
     18      1    127    257       21.89          0.1000E+05
     19      1    127    258       20.43          0.1000E+05
     20      1    128    257       22.44          0.1000E+05
     21      1    129    256       21.31          0.1000E+05
     22      1    129    257       20.80          0.1000E+05
     23      1    130    256       20.11          0.1000E+05
     24      1    131    255       7.565          0.1000E+05
     25      1    131    256       18.18          0.1000E+05
     26      1    132    255       2.610          0.1000E+05
     27      1    133    254      -4.187          0.1000E+05
     28      1    133    255       1.007          0.1000E+05
     29      1    134    254      -2.534          0.1000E+05
     30      1    135    253      -3.989          0.1000E+05
     31      1    135    254     -0.6291          0.1000E+05
     32      1    136    252      -3.597          0.1000E+05
     33      1    136    253     -0.3055          0.1000E+05
     34      1    137    252      -3.695          0.1000E+05
     35      1    138    251      -2.408          0.1000E+05
     36      1    138    252     -0.9729          0.1000E+05
     37      1    139    251      -2.734          0.1000E+05
     38      1    140    250      -4.191          0.1000E+05
     39      1    140    251      -4.450          0.1000E+05
     40      1    141    250      -4.400          0.1000E+05
     41      1    142    249      -5.504          0.1000E+05
     42      1    142    250      -5.064          0.1000E+05
     43      1    143    249      -5.901          0.1000E+05
     44      1    144    248      -6.408          0.1000E+05
     45      1    144    249      -5.221          0.1000E+05
     46      1    145    248      -6.278          0.1000E+05
     47      1    146    247      -6.028          0.1000E+05
     48      1    146    248      -5.722          0.1000E+05
     49      1    147    247      -6.056          0.1000E+05
     50      1    148    246      -6.052          0.1000E+05
     51      1    148    247      -5.917          0.1000E+05
     52      1    149    246      -6.194          0.1000E+05
     53      1    150    245      -5.376          0.1000E+05
     54      1    150    246      -4.915          0.1000E+05
     55      1    151    245      -5.731          0.1000E+05
     56      1    152    245      -7.879          0.1000E+05
     57      1    153    245      -8.038          0.1000E+05
     58      1    154    244      -7.811          0.1000E+05
     59      1    154    245      -7.028          0.1000E+05
     60      1    155    244      -7.866          0.1000E+05
     61      1    156    244      -7.403          0.1000E+05
     62      1    157    243      -7.241          0.1000E+05
     63      1    157    244      -6.392          0.1000E+05
     64      1    158    243      -8.122          0.1000E+05
     65      1    159    243      -8.023          0.1000E+05
     66      1    160    243      -7.110          0.1000E+05
     67      1    161    242      -7.761          0.1000E+05
     68      1    161    243      -7.064          0.1000E+05
     69      1    162    242      -8.758          0.1000E+05
     70      1    163    242      -8.179          0.1000E+05
     71      1    164    241      -9.074          0.1000E+05
     72      1    164    242      -3.746          0.1000E+05
     73      1    165    241      -8.908          0.1000E+05
     74      1    166    241      -9.021          0.1000E+05
     75      1    167    240      -10.50          0.1000E+05
     76      1    167    241      -7.246          0.1000E+05
     77      1    168    240      -8.554          0.1000E+05
     78      1    169    240      -4.110          0.1000E+05
     79      1    170    240      -4.174          0.1000E+05
     80      1    171    239      -11.05          0.1000E+05
     81      1    171    240      -8.891          0.1000E+05
     82      1    172    239      -11.56          0.1000E+05
     83      1    173    239      -12.11          0.1000E+05
     84      1    174    238      -12.60          0.1000E+05
     85      1    174    239      -12.26          0.1000E+05
     86      1    175    238      -12.22          0.1000E+05
     87      1    176    238      -12.60          0.1000E+05
     88      1    177    238      -12.80          0.1000E+05
     89      1    178    237      -12.32          0.1000E+05
     90      1    178    238      -12.34          0.1000E+05
     91      1    179    237      -12.85          0.1000E+05
     92      1    180    237      -12.67          0.1000E+05
     93      1    181    236      -13.33          0.1000E+05
     94      1    181    237      -12.89          0.1000E+05
     95      1    182    234      -13.53          0.1000E+05
     96      1    182    235      -12.79          0.1000E+05
     97      1    182    236      -12.99          0.1000E+05
     98      1    183    233      -13.01          0.1000E+05
     99      1    183    234      -13.72          0.1000E+05
    100      1    184    231      -12.82          0.1000E+05
    101      1    184    232      -12.99          0.1000E+05
    102      1    184    233      -13.02          0.1000E+05
    103      1    185    230      -13.28          0.1000E+05
    104      1    185    231      -12.90          0.1000E+05
    105      1    186    228      -12.82          0.1000E+05
    106      1    186    229      -12.64          0.1000E+05
    107      1    186    230      -13.11          0.1000E+05
    108      1    187    227      -12.42          0.1000E+05
    109      1    187    228      -12.89          0.1000E+05
    110      1    188    225      -11.65          0.1000E+05
    111      1    188    226      -12.24          0.1000E+05
    112      1    188    227      -13.03          0.1000E+05
    113      1    189    224      -11.78          0.1000E+05
    114      1    189    225      -11.60          0.1000E+05
    115      1    190    222      -12.21          0.1000E+05
    116      1    190    223      -12.26          0.1000E+05
    117      1    190    224      -12.35          0.1000E+05
    118      1    191    221      -11.94          0.1000E+05
    119      1    191    222      -12.15          0.1000E+05
    120      1    192    219      -11.26          0.1000E+05
    121      1    192    220      -10.68          0.1000E+05
    122      1    192    221      -11.64          0.1000E+05
    123      1    193    218      -12.42          0.1000E+05
    124      1    193    219      -11.92          0.1000E+05
    125      1    194    216      -13.10          0.1000E+05
    126      1    194    217      -12.98          0.1000E+05
    127      1    194    218      -12.78          0.1000E+05
    128      1    195     31      -28.15          0.1000E+05
    129      1    195     32      -28.15          0.1000E+05
    130      1    195     33      -28.21          0.1000E+05
    131      1    195     34      -28.26          0.1000E+05
    132      1    195     35      -27.85          0.1000E+05
    133      1    195     36      -28.73          0.1000E+05
    134      1    195     37      -27.93          0.1000E+05
    135      1    195     38      -28.24          0.1000E+05

    135 DRAINS

 OPENING FILE ON UNIT   99:
 ./rech_1.ref                                                                                                                                                                                            



                           RECHARGE
 READING ON UNIT   99 WITH FORMAT: (FREE)              

 OPENING FILE ON UNIT   99:
 ./CHD_0001.dat                                                                                                                                                                                          

 CHD NO.   LAYER   ROW   COL    START HEAD        END HEAD         
 ------------------------------------------------------------------
      1      1      2    102       15.00           15.00    
      2      1      2    103       15.00           15.00    
      3      1      2    104       15.00           15.00    
      4      1      3    104       15.00           15.00    
      5      1      3    105       15.00           15.00    
      6      1      3    106       15.00           15.00    
      7      1      4    106       15.00           15.00    
      8      1      4    107       15.00           15.00    
      9      1      4    108       15.00           15.00    
     10      1      5    108       15.00           15.00    
     11      1      5    109       15.00           15.00    
     12      1      5    110       15.00           15.00    
     13      1      6    110       15.00           15.00    
     14      1      6    111       15.00           15.00    
     15      1      7      9      -3.000          -3.000    
     16      1      7     10      -3.000          -3.000    
     17      1      7     11      -3.000          -3.000    
     18      1      7     12      -3.000          -3.000    
     19      1      7     13      -3.000          -3.000    
     20      1      7     14      -3.000          -3.000    
     21      1      7     15      -3.000          -3.000    
     22      1      7    111       15.00           15.00    
     23      1      7    112       15.00           15.00    
     24      1      7    113       15.00           15.00    
     25      1      8      2      -3.000          -3.000    
     26      1      8      3      -3.000          -3.000    
     27      1      8      4      -3.000          -3.000    
     28      1      8      5      -3.000          -3.000    
     29      1      8      6      -3.000          -3.000    
     30      1      8      7      -3.000          -3.000    
     31      1      8      8      -3.000          -3.000    
     32      1      8      9      -3.000          -3.000    
     33      1      8    113       15.00           15.00    
     34      1      8    114       15.00           15.00    
     35      1      8    115       15.00           15.00    
     36      1      9    115       15.00           15.00    
     37      1      9    116       15.00           15.00    
     38      1      9    117       15.00           15.00    
     39      1     10    117       15.00           15.00    
     40      1     10    118       15.00           15.00    
     41      1     11    118       15.00           15.00    
     42      1     11    119       15.00           15.00    
     43      1     12    119       15.00           15.00    
     44      1     12    120       15.00           15.00    
     45      1     13    120       15.00           15.00    
     46      1     13    121       15.00           15.00    
     47      1     14    121       15.00           15.00    
     48      1     14    122       15.00           15.00    
     49      1     15    122       15.00           15.00    
     50      1     15    123       15.00           15.00    
     51      1     16    123       15.00           15.00    
     52      1     16    124       15.00           15.00    
     53      1     16    125       15.00           15.00    
     54      1     17    125       15.00           15.00    
     55      1     23      2      -3.000          -3.000    
     56      1     24      2      -3.000          -3.000    
     57      1     25      2      -3.000          -3.000    
     58      1     26      2      -3.000          -3.000    
     59      1     27      2      -3.000          -3.000    
     60      1     28      2      -3.000          -3.000    
     61      1     29      2      -3.000          -3.000    
     62      1     30      2      -3.000          -3.000    
     63      1     31      2      -3.000          -3.000    
     64      1     32      2      -3.000          -3.000    
     65      1     33      2      -3.000          -3.000    
     66      1     34      2      -3.000          -3.000    
     67      1     35      2      -3.000          -3.000    
     68      1     36      2      -3.000          -3.000    
     69      1     37      2      -3.000          -3.000    
     70      1     38      2      -3.000          -3.000    
     71      1     39      2      -3.000          -3.000    
     72      1     39      3      -3.000          -3.000    
     73      1     40      3      -3.000          -3.000    
     74      1     41      3      -3.000          -3.000    
     75      1     42      3      -3.000          -3.000    
     76      1     43      3      -3.000          -3.000    
     77      1     44      3      -3.000          -3.000    
     78      1     45      3      -3.000          -3.000    
     79      1     46      3      -3.000          -3.000    
     80      1     47      3      -3.000          -3.000    
     81      1     48      3      -3.000          -3.000    
     82      1     49      3      -3.000          -3.000    
     83      1     50      3      -3.000          -3.000    
     84      1     51      3      -3.000          -3.000    
     85      1     52      3      -3.000          -3.000    
     86      1     53      3      -3.000          -3.000    
     87      1     54      3      -3.000          -3.000    
     88      1     55      3      -3.000          -3.000    
     89      1     56      3      -3.000          -3.000    
     90      1     56      4      -3.000          -3.000    
     91      1     57      4      -3.000          -3.000    
     92      1     58      4      -3.000          -3.000    
     93      1     59      4      -3.000          -3.000    
     94      1     60      4      -3.000          -3.000    
     95      1     61      4      -3.000          -3.000    
     96      1     62      4      -3.000          -3.000    
[...]
     57      1    153    245      -8.038          0.1000E+05
     58      1    154    244      -7.811          0.1000E+05
     59      1    154    245      -7.028          0.1000E+05
     60      1    155    244      -7.866          0.1000E+05
     61      1    156    244      -7.403          0.1000E+05
     62      1    157    243      -7.241          0.1000E+05
     63      1    157    244      -6.392          0.1000E+05
     64      1    158    243      -8.122          0.1000E+05
     65      1    159    243      -8.023          0.1000E+05
     66      1    160    243      -7.110          0.1000E+05
     67      1    161    242      -7.761          0.1000E+05
     68      1    161    243      -7.064          0.1000E+05
     69      1    162    242      -8.758          0.1000E+05
     70      1    163    242      -8.179          0.1000E+05
     71      1    164    241      -9.074          0.1000E+05
     72      1    164    242      -3.746          0.1000E+05
     73      1    165    241      -8.908          0.1000E+05
     74      1    166    241      -9.021          0.1000E+05
     75      1    167    240      -10.50          0.1000E+05
     76      1    167    241      -7.246          0.1000E+05
     77      1    168    240      -8.554          0.1000E+05
     78      1    169    240      -4.110          0.1000E+05
     79      1    170    240      -4.174          0.1000E+05
     80      1    171    239      -11.05          0.1000E+05
     81      1    171    240      -8.891          0.1000E+05
     82      1    172    239      -11.56          0.1000E+05
     83      1    173    239      -12.11          0.1000E+05
     84      1    174    238      -12.60          0.1000E+05
     85      1    174    239      -12.26          0.1000E+05
     86      1    175    238      -12.22          0.1000E+05
     87      1    176    238      -12.60          0.1000E+05
     88      1    177    238      -12.80          0.1000E+05
     89      1    178    237      -12.32          0.1000E+05
     90      1    178    238      -12.34          0.1000E+05
     91      1    179    237      -12.85          0.1000E+05
     92      1    180    237      -12.67          0.1000E+05
     93      1    181    236      -13.33          0.1000E+05
     94      1    181    237      -12.89          0.1000E+05
     95      1    182    234      -13.53          0.1000E+05
     96      1    182    235      -12.79          0.1000E+05
     97      1    182    236      -12.99          0.1000E+05
     98      1    183    233      -13.01          0.1000E+05
     99      1    183    234      -13.72          0.1000E+05
    100      1    184    231      -12.82          0.1000E+05
    101      1    184    232      -12.99          0.1000E+05
    102      1    184    233      -13.02          0.1000E+05
    103      1    185    230      -13.28          0.1000E+05
    104      1    185    231      -12.90          0.1000E+05
    105      1    186    228      -12.82          0.1000E+05
    106      1    186    229      -12.64          0.1000E+05
    107      1    186    230      -13.11          0.1000E+05
    108      1    187    227      -12.42          0.1000E+05
    109      1    187    228      -12.89          0.1000E+05
    110      1    188    225      -11.65          0.1000E+05
    111      1    188    226      -12.24          0.1000E+05
    112      1    188    227      -13.03          0.1000E+05
    113      1    189    224      -11.78          0.1000E+05
    114      1    189    225      -11.60          0.1000E+05
    115      1    190    222      -12.21          0.1000E+05
    116      1    190    223      -12.26          0.1000E+05
    117      1    190    224      -12.35          0.1000E+05
    118      1    191    221      -11.94          0.1000E+05
    119      1    191    222      -12.15          0.1000E+05
    120      1    192    219      -11.26          0.1000E+05
    121      1    192    220      -10.68          0.1000E+05
    122      1    192    221      -11.64          0.1000E+05
    123      1    193    218      -12.42          0.1000E+05
    124      1    193    219      -11.92          0.1000E+05
    125      1    194    216      -13.10          0.1000E+05
    126      1    194    217      -12.98          0.1000E+05
    127      1    194    218      -12.78          0.1000E+05
    128      1    195     31      -28.15          0.1000E+05
    129      1    195     32      -28.15          0.1000E+05
    130      1    195     33      -28.21          0.1000E+05
    131      1    195     34      -28.26          0.1000E+05
    132      1    195     35      -27.85          0.1000E+05
    133      1    195     36      -28.73          0.1000E+05
    134      1    195     37      -27.93          0.1000E+05
    135      1    195     38      -28.24          0.1000E+05

    135 DRAINS

 OPENING FILE ON UNIT   99:
 ./rech_20.ref                                                                                                                                                                                           



                           RECHARGE
 READING ON UNIT   99 WITH FORMAT: (FREE)              

 OPENING FILE ON UNIT   99:
 ./CHD_0020.dat                                                                                                                                                                                          

 CHD NO.   LAYER   ROW   COL    START HEAD        END HEAD         
 ------------------------------------------------------------------
      1      1      2    102       15.00           15.00    
      2      1      2    103       15.00           15.00    
      3      1      2    104       15.00           15.00    
      4      1      3    104       15.00           15.00    
      5      1      3    105       15.00           15.00    
      6      1      3    106       15.00           15.00    
      7      1      4    106       15.00           15.00    
      8      1      4    107       15.00           15.00    
      9      1      4    108       15.00           15.00    
     10      1      5    108       15.00           15.00    
     11      1      5    109       15.00           15.00    
     12      1      5    110       15.00           15.00    
     13      1      6    110       15.00           15.00    
     14      1      6    111       15.00           15.00    
     15      1      7      9      -3.000          -3.000    
     16      1      7     10      -3.000          -3.000    
     17      1      7     11      -3.000          -3.000    
     18      1      7     12      -3.000          -3.000    
     19      1      7     13      -3.000          -3.000    
     20      1      7     14      -3.000          -3.000    
     21      1      7     15      -3.000          -3.000    
     22      1      7    111       15.00           15.00    
     23      1      7    112       15.00           15.00    
     24      1      7    113       15.00           15.00    
     25      1      8      2      -3.000          -3.000    
     26      1      8      3      -3.000          -3.000    
     27      1      8      4      -3.000          -3.000    
     28      1      8      5      -3.000          -3.000    
     29      1      8      6      -3.000          -3.000    
     30      1      8      7      -3.000          -3.000    
     31      1      8      8      -3.000          -3.000    
     32      1      8      9      -3.000          -3.000    
     33      1      8    113       15.00           15.00    
     34      1      8    114       15.00           15.00    
     35      1      8    115       15.00           15.00    
     36      1      9    115       15.00           15.00    
     37      1      9    116       15.00           15.00    
     38      1      9    117       15.00           15.00    
     39      1     10    117       15.00           15.00    
     40      1     10    118       15.00           15.00    
     41      1     11    118       15.00           15.00    
     42      1     11    119       15.00           15.00    
     43      1     12    119       15.00           15.00    
     44      1     12    120       15.00           15.00    
     45      1     13    120       15.00           15.00    
     46      1     13    121       15.00           15.00    
     47      1     14    121       15.00           15.00    
     48      1     14    122       15.00           15.00    
     49      1     15    122       15.00           15.00    
     50      1     15    123       15.00           15.00    
     51      1     16    123       15.00           15.00    
     52      1     16    124       15.00           15.00    
     53      1     16    125       15.00           15.00    
     54      1     17    125       15.00           15.00    
     55      1     23      2      -3.000          -3.000    
     56      1     24      2      -3.000          -3.000    
     57      1     25      2      -3.000          -3.000    
     58      1     26      2      -3.000          -3.000    
     59      1     27      2      -3.000          -3.000    
     60      1     28      2      -3.000          -3.000    
     61      1     29      2      -3.000          -3.000    
     62      1     30      2      -3.000          -3.000    
     63      1     31      2      -3.000          -3.000    
     64      1     32      2      -3.000          -3.000    
     65      1     33      2      -3.000          -3.000    
     66      1     34      2      -3.000          -3.000    
     67      1     35      2      -3.000          -3.000    
     68      1     36      2      -3.000          -3.000    
     69      1     37      2      -3.000          -3.000    
     70      1     38      2      -3.000          -3.000    
     71      1     39      2      -3.000          -3.000    
     72      1     39      3      -3.000          -3.000    
     73      1     40      3      -3.000          -3.000    
     74      1     41      3      -3.000          -3.000    
     75      1     42      3      -3.000          -3.000    
     76      1     43      3      -3.000          -3.000    
     77      1     44      3      -3.000          -3.000    
     78      1     45      3      -3.000          -3.000    
     79      1     46      3      -3.000          -3.000    
     80      1     47      3      -3.000          -3.000    
     81      1     48      3      -3.000          -3.000    
     82      1     49      3      -3.000          -3.000    
     83      1     50      3      -3.000          -3.000    
     84      1     51      3      -3.000          -3.000    
     85      1     52      3      -3.000          -3.000    
     86      1     53      3      -3.000          -3.000    
     87      1     54      3      -3.000          -3.000    
     88      1     55      3      -3.000          -3.000    
     89      1     56      3      -3.000          -3.000    
     90      1     56      4      -3.000          -3.000    
     91      1     57      4      -3.000          -3.000    
     92      1     58      4      -3.000          -3.000    
     93      1     59      4      -3.000          -3.000    
     94      1     60      4      -3.000          -3.000    
     95      1     61      4      -3.000          -3.000    
     96      1     62      4      -3.000          -3.000    
     97      1     63      4      -3.000          -3.000    
     98      1     64      4      -3.000          -3.000    
     99      1     65      4      -3.000          -3.000    
    100      1     66      4      -3.000          -3.000    
    101      1     67      4      -3.000          -3.000    
    102      1     68      4      -3.000          -3.000    
    103      1     69      4      -3.000          -3.000    
    104      1     70      4      -3.000          -3.000    
    105      1     71      4      -3.000          -3.000    
    106      1     72      4      -3.000          -3.000    
    107      1     72      5      -3.000          -3.000    
    108      1     73      5      -3.000          -3.000    
    109      1     74      5      -3.000          -3.000    
    110      1     75      5      -3.000          -3.000    
    111      1     76      5      -3.000          -3.000    
    112      1     77      5      -3.000          -3.000    
    113      1     78      5      -3.000          -3.000    
    114      1     79      5      -3.000          -3.000    
    115      1     80      5      -3.000          -3.000    
    116      1     81      5      -3.000          -3.000    
    117      1     82      5      -3.000          -3.000    
    118      1     83      5      -3.000          -3.000    
    119      1     84      5      -3.000          -3.000    
    120      1     85      5      -3.000          -3.000    
    121      1     86      5      -3.000          -3.000    
    122      1     87      5      -3.000          -3.000    
    123      1     88      5      -3.000          -3.000    
    124      1     89      5      -3.000          -3.000    
    125      1     89      6      -3.000          -3.000    
    126      1     90      6      -3.000          -3.000    
    127      1     91      6      -3.000          -3.000    
    128      1     92      6      -3.000          -3.000    
    129      1     93      6      -3.000          -3.000    
    130      1     94      6      -3.000          -3.000    
    131      1     95      6      -3.000          -3.000    
    132      1     96      6      -3.000          -3.000    
    133      1     97      6      -3.000          -3.000    
    134      1     98      6      -3.000          -3.000    
    135      1     99      6      -3.000          -3.000    
    136      1    100      6      -3.000          -3.000    
    137      1    101      6      -3.000          -3.000    
    138      1    102      6      -3.000          -3.000    
    139      1    103      6      -3.000          -3.000    
    140      1    104      6      -3.000          -3.000    
    141      1    105      6      -3.000          -3.000    
    142      1    106      6      -3.000          -3.000    
    143      1    106      7      -3.000          -3.000    
    144      1    107      7      -3.000          -3.000    
    145      1    108      7      -3.000          -3.000    
    146      1    109      7      -3.000          -3.000    
    147      1    110      7      -3.000          -3.000    
    148      1    111      7      -3.000          -3.000    
    149      1    112      7      -3.000          -3.000    
    150      1    113      7      -3.000          -3.000    
    151      1    114      7      -3.000          -3.000    
    152      1    115      7      -3.000          -3.000    
    153      1    116      7      -3.000          -3.000    
    154      1    117      7      -3.000          -3.000    
    155      1    118      7      -3.000          -3.000    
    156      1    119      7      -3.000          -3.000    
    157      1    120      7      -3.000          -3.000    
    158      1    121      7      -3.000          -3.000    
    159      1    122      7      -3.000          -3.000    
    160      1    123      7      -3.000          -3.000    
    161      1    123      8      -3.000          -3.000    
    162      1    124      8      -3.000          -3.000    
    163      1    125      8      -3.000          -3.000    
    164      1    126      8      -3.000          -3.000    
    165      1    127      8      -3.000          -3.000    
    166      1    128      8      -3.000          -3.000    
    167      1    129      8      -3.000          -3.000    
    168      1    130      8      -3.000          -3.000    
    169      1    131      8      -3.000          -3.000    
    170      1    132      8      -3.000          -3.000    
    171      1    133      8      -3.000          -3.000    
    172      1    134      8      -3.000          -3.000    
    173      1    135      8      -3.000          -3.000    
    174      1    136      8      -3.000          -3.000    
    175      1    137      8      -3.000          -3.000    
    176      1    138      8      -3.000          -3.000    
    177      1    139      8      -3.000          -3.000    
    178      1    140      8      -3.000          -3.000    
    179      1    140      9      -3.000          -3.000    
    180      1    141      9      -3.000          -3.000    
    181      1    142      9      -3.000          -3.000    
    182      1    143      9      -3.000          -3.000    
    183      1    144      9      -3.000          -3.000    
    184      1    145      9      -3.000          -3.000    
    185      1    146      9      -3.000          -3.000    
    186      1    147      9      -3.000          -3.000    
    187      1    148      9      -3.000          -3.000    
    188      1    149      9      -3.000          -3.000    
    189      1    150      9      -3.000          -3.000    


    189 TIME-VARIANT SPECIFIED-HEAD CELLS
 
 SOLVING FOR HEAD 

    ------------------------------------------------
       NWT REQUIRED            4 OUTER ITERATIONS 
       AND A TOTAL OF        126 INNER ITERATIONS.
    ------------------------------------------------

 OUTPUT CONTROL FOR STRESS PERIOD   21   TIME STEP    1
    SAVE HEAD FOR ALL LAYERS
    SAVE BUDGET
 UBDSV4 SAVING "          DRAINS" ON UNIT  53 AT TIME STEP  1, STRESS PERIOD  21

 HEAD WILL BE SAVED ON UNIT   51 AT END OF TIME STEP    1, STRESS PERIOD   21
1
  VOLUMETRIC BUDGET FOR ENTIRE MODEL AT END OF TIME STEP    1, STRESS PERIOD  21
  ------------------------------------------------------------------------------

     CUMULATIVE VOLUMES      L**3       RATES FOR THIS TIME STEP      L**3/T
     ------------------                 ------------------------

           IN:                                      IN:
           ---                                      ---
             STORAGE     =   703432384.0000               STORAGE     =    58245292.0000
       CONSTANT HEAD     =   434263104.0000         CONSTANT HEAD     =     2034009.6250
               WELLS     =           0.0000                 WELLS     =           0.0000
              DRAINS     =           0.0000                DRAINS     =           0.0000
            RECHARGE     =  8232110080.0000              RECHARGE     =    10950984.0000

                TOTAL IN =  9369805824.0000                  TOTAL IN =    71230288.0000

          OUT:                                     OUT:
          ----                                     ----
             STORAGE     =  7352499712.0000               STORAGE     =    21253480.0000
       CONSTANT HEAD     =  1250859776.0000         CONSTANT HEAD     =    23361882.0000
               WELLS     =   102327752.0000                 WELLS     =    11837115.0000
              DRAINS     =   665740224.0000                DRAINS     =    14777353.0000
            RECHARGE     =           0.0000              RECHARGE     =           0.0000

               TOTAL OUT =  9371426816.0000                 TOTAL OUT =    71229832.0000

                IN - OUT =    -1620992.0000                  IN - OUT =         456.0000

     PERCENT DISCREPANCY =          -0.02         PERCENT DISCREPANCY =           0.00






         TIME SUMMARY AT END OF TIME STEP    1 IN STRESS PERIOD   21
                    SECONDS     MINUTES      HOURS       DAYS        YEARS
                    -----------------------------------------------------------
   TIME STEP LENGTH 3.15576E+07 5.25960E+05  8766.0      365.25      1.0000    
 STRESS PERIOD TIME 3.15576E+07 5.25960E+05  8766.0      365.25      1.0000    
         TOTAL TIME 2.42994E+09 4.04989E+07 6.74982E+05  28124.      77.000    
1

 Run end date and time (yyyy/mm/dd hh:mm:ss): 2021/09/08  9:53:53
 Elapsed run time: 17.490 Seconds

