                                  MODFLOW-NWT-SWR1 
      U.S. GEOLOGICAL SURVEY MODULAR FINITE-DIFFERENCE GROUNDWATER-FLOW MODEL
                             VERSION 1.1.4 4/01/2018
                    BASED ON MODFLOW-2005 VERSION 1.12.00 02/03/2017

 LIST FILE: ..\..\output\output.tbhm_tr_Xhigh_Qhigh\tbhm_tr_Xhigh_Qhigh.list
                         UNIT    2

 OPENING tbhm_tr_Xhigh_Qhigh.dis
 FILE TYPE:DIS   UNIT   12   STATUS:OLD    
 FORMAT:FORMATTED              ACCESS:SEQUENTIAL          

 OPENING tbhm_tr_Xhigh_Qhigh.bas
 FILE TYPE:BAS6   UNIT   13   STATUS:OLD    
 FORMAT:FORMATTED              ACCESS:SEQUENTIAL          

 OPENING tbhm_tr_Xhigh_Qhigh.upw
 FILE TYPE:UPW   UNIT   31   STATUS:OLD    
 FORMAT:FORMATTED              ACCESS:SEQUENTIAL          

 OPENING tbhm_tr_Xhigh_Qhigh.drn
 FILE TYPE:DRN   UNIT   21   STATUS:OLD    
 FORMAT:FORMATTED              ACCESS:SEQUENTIAL          

 OPENING tbhm_tr_Xhigh_Qhigh.rch
 FILE TYPE:RCH   UNIT   19   STATUS:OLD    
 FORMAT:FORMATTED              ACCESS:SEQUENTIAL          

 OPENING tbhm_tr_Xhigh_Qhigh.oc
 FILE TYPE:OC   UNIT   14   STATUS:OLD    
 FORMAT:FORMATTED              ACCESS:SEQUENTIAL          

 OPENING tbhm_tr_Xhigh_Qhigh.nwt
 FILE TYPE:NWT   UNIT   32   STATUS:OLD    
 FORMAT:FORMATTED              ACCESS:SEQUENTIAL          

 OPENING tbhm_tr_Xhigh_Qhigh.hyd
 FILE TYPE:HYD   UNIT   36   STATUS:OLD    
 FORMAT:FORMATTED              ACCESS:SEQUENTIAL          

 OPENING tbhm_tr_Xhigh_Qhigh.wel
 FILE TYPE:WEL   UNIT   20   STATUS:OLD    
 FORMAT:FORMATTED              ACCESS:SEQUENTIAL          

 OPENING ..\..\output\output.tbhm_tr_Xhigh_Qhigh\tbhm_tr_Xhigh_Qhigh.cbc
 FILE TYPE:DATA(BINARY)   UNIT   53   STATUS:REPLACE
 FORMAT:BINARY                 ACCESS:SEQUENTIAL          

 OPENING ..\..\output\output.tbhm_tr_Xhigh_Qhigh\tbhm_tr_Xhigh_Qhigh.hds
 FILE TYPE:DATA(BINARY)   UNIT   51   STATUS:REPLACE
 FORMAT:BINARY                 ACCESS:SEQUENTIAL          

 OPENING ..\..\output\output.tbhm_tr_Xhigh_Qhigh\tbhm_tr_Xhigh_Qhigh.hyd.bin
 FILE TYPE:DATA(BINARY)   UNIT  536   STATUS:REPLACE
 FORMAT:BINARY                 ACCESS:SEQUENTIAL          

 BAS -- BASIC PACKAGE, VERSION 1.1.4, 4/01/2018 INPUT READ FROM UNIT   13
 
 MODFLOW was compiled using mixed precision
 Precision of REAL variables:           6
 Precision of DOUBLE PRECISION variables:          15

 DISCRETIZATION INPUT DATA READ FROM UNIT   12
 # DIS package for  MODFLOW-NWT, generated by Flopy.
    4 LAYERS       208 ROWS       333 COLUMNS
   13 STRESS PERIOD(S) IN SIMULATION
 MODEL TIME UNIT IS DAYS
 MODEL LENGTH UNIT IS METERS
  Confining bed flag for each layer:
   0   0   0   0

 OPENING FILE ON UNIT   99:
 .\delr.ref                                                                                                                                                                                              



                               DELR
 READING ON UNIT   99 WITH FORMAT: (FREE)              

 OPENING FILE ON UNIT   99:
 .\delc.ref                                                                                                                                                                                              



                               DELC
 READING ON UNIT   99 WITH FORMAT: (FREE)              

 OPENING FILE ON UNIT   99:
 .\model_top.ref                                                                                                                                                                                         



           TOP ELEVATION OF LAYER 1
 READING ON UNIT   99 WITH FORMAT: (FREE)              

 OPENING FILE ON UNIT   99:
 .\botm_layer_1.ref                                                                                                                                                                                      



             MODEL LAYER BOTTOM EL. FOR LAYER   1
 READING ON UNIT   99 WITH FORMAT: (FREE)              

 OPENING FILE ON UNIT   99:
 .\botm_layer_2.ref                                                                                                                                                                                      



             MODEL LAYER BOTTOM EL. FOR LAYER   2
 READING ON UNIT   99 WITH FORMAT: (FREE)              

 OPENING FILE ON UNIT   99:
 .\botm_layer_3.ref                                                                                                                                                                                      



             MODEL LAYER BOTTOM EL. FOR LAYER   3
 READING ON UNIT   99 WITH FORMAT: (FREE)              

 OPENING FILE ON UNIT   99:
 .\botm_layer_4.ref                                                                                                                                                                                      



             MODEL LAYER BOTTOM EL. FOR LAYER   4
 READING ON UNIT   99 WITH FORMAT: (FREE)              


 STRESS PERIOD     LENGTH       TIME STEPS     MULTIPLIER FOR DELT    SS FLAG
 ----------------------------------------------------------------------------
        1         1.000000          1                    1.000         SS
        2         3653.000          2                    1.414         TR
        3         4018.000          2                    1.414         TR
        4         1095.000          2                    1.414         TR
        5         3653.000          2                    1.414         TR
        6         3652.000          2                    1.414         TR
        7         7305.000          2                    1.414         TR
        8         7305.000          2                    1.414         TR
        9         3653.000          2                    1.414         TR
       10         3652.000          2                    1.414         TR
       11         7305.000          2                    1.414         TR
       12         7304.000          2                    1.414         TR
       13         7305.000          2                    1.414         TR

 COMBINED STEADY-STATE AND TRANSIENT SIMULATION



 
 # BAS6 package for  MODFLOW-NWT, generated by Flopy.                            
 THE FREE FORMAT OPTION HAS BEEN SELECTED

 OPENING FILE ON UNIT   99:
 ..\externalfiles\ibound_layer_1.ref                                                                                                                                                                     



                     BOUNDARY ARRAY FOR LAYER   1
 READING ON UNIT   99 WITH FORMAT: (FREE)              

 OPENING FILE ON UNIT   99:
 ..\externalfiles\ibound_layer_2.ref                                                                                                                                                                     



                     BOUNDARY ARRAY FOR LAYER   2
 READING ON UNIT   99 WITH FORMAT: (FREE)              

 OPENING FILE ON UNIT   99:
 ..\externalfiles\ibound_layer_3.ref                                                                                                                                                                     



                     BOUNDARY ARRAY FOR LAYER   3
 READING ON UNIT   99 WITH FORMAT: (FREE)              

 OPENING FILE ON UNIT   99:
 ..\externalfiles\ibound_layer_4.ref                                                                                                                                                                     



                     BOUNDARY ARRAY FOR LAYER   4
 READING ON UNIT   99 WITH FORMAT: (FREE)              

 AQUIFER HEAD WILL BE SET TO  -999.00     AT ALL NO-FLOW NODES (IBOUND=0).

 OPENING FILE ON UNIT   99:
 ..\externalfiles\strt_layer_1.ref                                                                                                                                                                       



                       INITIAL HEAD FOR LAYER   1
 READING ON UNIT   99 WITH FORMAT: (FREE)              

 OPENING FILE ON UNIT   99:
 ..\externalfiles\strt_layer_2.ref                                                                                                                                                                       



                       INITIAL HEAD FOR LAYER   2
 READING ON UNIT   99 WITH FORMAT: (FREE)              

 OPENING FILE ON UNIT   99:
 ..\externalfiles\strt_layer_3.ref                                                                                                                                                                       



                       INITIAL HEAD FOR LAYER   3
 READING ON UNIT   99 WITH FORMAT: (FREE)              

 OPENING FILE ON UNIT   99:
 ..\externalfiles\strt_layer_4.ref                                                                                                                                                                       



                       INITIAL HEAD FOR LAYER   4
 READING ON UNIT   99 WITH FORMAT: (FREE)              
 # OC package for  MODFLOW-NWT, generated by Flopy.

 OUTPUT CONTROL IS SPECIFIED ONLY AT TIME STEPS FOR WHICH OUTPUT IS DESIRED
 COMPACT CELL-BY-CELL BUDGET FILES WILL BE WRITTEN
 AUXILIARY DATA WILL BE SAVED IN CELL-BY-CELL BUDGET FILES
 HEAD PRINT FORMAT CODE IS   0    DRAWDOWN PRINT FORMAT CODE IS   0
 HEADS WILL BE SAVED ON UNIT   51    DRAWDOWNS WILL BE SAVED ON UNIT    0
 # NWT package for  MODFLOW-NWT, generated by Flopy.

 NWT1 -- Newton Solver, VERSION 1.1.4, 4/01/2018
         INPUT READ FROM UNIT 32

 COMPLEX OPTION:
 DEFAULT SOLVER INPUT VALUES REFLECT STRONGLY NONLINEAR MODEL
 ***GMRES linear solver will be used***
 
   CONVERGENCE CRITERION OF   0.100000E-03 FOR HEAD SOLUTION
   AND A TOLERANCE OF   0.500000E+03 FOR FLOW SOLUTION AND 
   A MAXIMUM OF   200 OUTER ITERATIONS. 


   D-B-D REDUCTION FACTOR OF    0.850000E+00 AND 
   A D-B-D INCREASE FACTOR OF    0.100000E-04 AND 
   A D-B-D RELAXATION OF    0.000000E+00 AND 
   A MOMENTUM FACTOR OF    0.100000E+00 .


   BACKTRACKING IS ACTIVE 
   THE MAXIMUM NUMBER OF BACKTRACKS IS    50 AND 
   THE BACKTRACKING TOLERANCE IS    0.110000E+01 AND
   THE BACKTRACKING REDUCTION FACTOR IS    0.700000E+00

 GMRES -- LINEAR SOLUTION BY GMRES PACKAGE 
     adapted for HYDROTHERM by Kipp and others (2008)
     using software originally developed by Saad (1990) 32
     using algorithms described in Saad (2003)

 UPW1 -- UPSTREAM WEIGHTING FLOW PACKAGE, VERSION 1.1.4, 4/01/2018
         INPUT READ FROM UNIT 31

 # UPW package for  MODFLOW-NWT, generated by Flopy.
 CELL-BY-CELL FLOWS WILL BE SAVED ON UNIT   53
 No named parameters

   LAYER FLAGS:
 LAYER       LAYTYP          LAYAVG    CHANI           LAYVKA           LAYWET
 ---------------------------------------------------------------------------
    1             1             0    -1.000E+00            -1             0
    2             1             0    -1.000E+00            -1             0
    3             1             0    -1.000E+00            -1             0
    4             0             0    -1.000E+00            -1             0

   INTERPRETATION OF LAYER FLAGS:
                        INTERBLOCK     HORIZONTAL    DATA IN
         LAYER TYPE   TRANSMISSIVITY   ANISOTROPY   ARRAY VKA   WETTABILITY
 LAYER   (LAYTYP)        (LAYAVG)      (CHANI)     (LAYVKA)       (LAYWET)
 ---------------------------------------------------------------------------
    1   CONVERTIBLE      HARMONIC      VARIABLE    ANISOTROPY  NON-WETTABLE
    2   CONVERTIBLE      HARMONIC      VARIABLE    ANISOTROPY  NON-WETTABLE
    3   CONVERTIBLE      HARMONIC      VARIABLE    ANISOTROPY  NON-WETTABLE
    4      CONFINED      HARMONIC      VARIABLE    ANISOTROPY  NON-WETTABLE

 OPENING FILE ON UNIT   99:
 ..\externalfiles\hk_Layer_1.ref                                                                                                                                                                         



              HYD. COND. ALONG ROWS FOR LAYER   1
 READING ON UNIT   99 WITH FORMAT: (FREE)              

 OPENING FILE ON UNIT   99:
 ..\externalfiles\hani_Layer_1.ref                                                                                                                                                                       



             HORIZ. ANI. (COL./ROW) FOR LAYER   1
 READING ON UNIT   99 WITH FORMAT: (FREE)              

 OPENING FILE ON UNIT   99:
 ..\externalfiles\vani1.ref                                                                                                                                                                              



            HORIZ. TO VERTICAL ANI. FOR LAYER   1
 READING ON UNIT   99 WITH FORMAT: (FREE)              

 OPENING FILE ON UNIT   99:
 ..\externalfiles\ss_Layer_1.ref                                                                                                                                                                         



                   SPECIFIC STORAGE FOR LAYER   1
 READING ON UNIT   99 WITH FORMAT: (FREE)              

 OPENING FILE ON UNIT   99:
 ..\externalfiles\sy_Layer_1.ref                                                                                                                                                                         



                     SPECIFIC YIELD FOR LAYER   1
 READING ON UNIT   99 WITH FORMAT: (FREE)              

 OPENING FILE ON UNIT   99:
 ..\externalfiles\hk_Layer_2.ref                                                                                                                                                                         



              HYD. COND. ALONG ROWS FOR LAYER   2
 READING ON UNIT   99 WITH FORMAT: (FREE)              

 OPENING FILE ON UNIT   99:
 ..\externalfiles\hani_Layer_2.ref                                                                                                                                                                       



             HORIZ. ANI. (COL./ROW) FOR LAYER   2
 READING ON UNIT   99 WITH FORMAT: (FREE)              

 OPENING FILE ON UNIT   99:
 ..\externalfiles\vani2.ref                                                                                                                                                                              



            HORIZ. TO VERTICAL ANI. FOR LAYER   2
 READING ON UNIT   99 WITH FORMAT: (FREE)              

 OPENING FILE ON UNIT   99:
 ..\externalfiles\ss_Layer_2.ref                                                                                                                                                                         



                   SPECIFIC STORAGE FOR LAYER   2
 READING ON UNIT   99 WITH FORMAT: (FREE)              

 OPENING FILE ON UNIT   99:
 ..\externalfiles\sy_Layer_2.ref                                                                                                                                                                         



                     SPECIFIC YIELD FOR LAYER   2
 READING ON UNIT   99 WITH FORMAT: (FREE)              

 OPENING FILE ON UNIT   99:
 ..\externalfiles\hk_Layer_3.ref                                                                                                                                                                         



              HYD. COND. ALONG ROWS FOR LAYER   3
 READING ON UNIT   99 WITH FORMAT: (FREE)              

 OPENING FILE ON UNIT   99:
 ..\externalfiles\hani_Layer_3.ref                                                                                                                                                                       



             HORIZ. ANI. (COL./ROW) FOR LAYER   3
 READING ON UNIT   99 WITH FORMAT: (FREE)              

 OPENING FILE ON UNIT   99:
 ..\externalfiles\vani3.ref                                                                                                                                                                              



            HORIZ. TO VERTICAL ANI. FOR LAYER   3
 READING ON UNIT   99 WITH FORMAT: (FREE)              

 OPENING FILE ON UNIT   99:
 ..\externalfiles\ss_Layer_3.ref                                                                                                                                                                         



                   SPECIFIC STORAGE FOR LAYER   3
 READING ON UNIT   99 WITH FORMAT: (FREE)              

 OPENING FILE ON UNIT   99:
 ..\externalfiles\sy_Layer_3.ref                                                                                                                                                                         



                     SPECIFIC YIELD FOR LAYER   3
 READING ON UNIT   99 WITH FORMAT: (FREE)              

 OPENING FILE ON UNIT   99:
 ..\externalfiles\hk_Layer_4.ref                                                                                                                                                                         



              HYD. COND. ALONG ROWS FOR LAYER   4
 READING ON UNIT   99 WITH FORMAT: (FREE)              

 OPENING FILE ON UNIT   99:
 ..\externalfiles\hani_Layer_4.ref                                                                                                                                                                       



             HORIZ. ANI. (COL./ROW) FOR LAYER   4
 READING ON UNIT   99 WITH FORMAT: (FREE)              

 OPENING FILE ON UNIT   99:
 ..\externalfiles\vani4.ref                                                                                                                                                                              



            HORIZ. TO VERTICAL ANI. FOR LAYER   4
 READING ON UNIT   99 WITH FORMAT: (FREE)              

 OPENING FILE ON UNIT   99:
 ..\externalfiles\ss_Layer_4.ref                                                                                                                                                                         



                   SPECIFIC STORAGE FOR LAYER   4
 READING ON UNIT   99 WITH FORMAT: (FREE)              

 WEL -- WELL PACKAGE FOR NWT VERSION 1.1.4,  4/01/2018 INPUT READ FROM UNIT   20
 # WEL package for  MODFLOW-NWT, generated by Flopy.
 No named parameters
 MAXIMUM OF      4 ACTIVE WELLS AT ONE TIME
 CELL-BY-CELL FLOWS WILL BE SAVED ON UNIT   53
 No named parameters
  PHIRAMP WILL BE SET TO A DEFAULT VALUE OF 1.0E-5
  WELLS WITH REDUCED PUMPING WILL BE REPORTED TO THE MAIN LISTING FILE


     0 Well parameters

 DRN -- DRAIN PACKAGE, VERSION 7, 5/2/2005 INPUT READ FROM UNIT   21
 # DRN package for  MODFLOW-NWT, generated by Flopy.
 No named parameters
 MAXIMUM OF   2313 ACTIVE DRAINS AT ONE TIME
 CELL-BY-CELL FLOWS WILL BE SAVED ON UNIT   53


     0 Drain parameters

 RCH -- RECHARGE PACKAGE, VERSION 7, 5/2/2005 INPUT READ FROM UNIT   19
 # RCH package for  MODFLOW-NWT, generated by Flopy.
 No named parameters
 OPTION 3 -- RECHARGE TO HIGHEST ACTIVE NODE IN EACH VERTICAL COLUMN
 CELL-BY-CELL FLOWS WILL BE SAVED ON UNIT   53


     0 Recharge parameters

 HYD -- HYDROGRAPH DATA FOR BAS PACKAGE, VERSION 7, 07/14/2006
         INPUT READ FROM UNIT 36
 HYDROGRAPH VALUES WILL BE SAVED ON UNIT: 536
 HYDROGRAPH VALUES AT DRY CELLS WILL BE:   -999.00    

 ARR INTYP  KLAY     XL            YL         HYDLBL
 ----------------------------------------------------------------
 HD   C      2   5.32220E+03   5.87206E+04  HDC002pwh_spng_003  
 HD   C      3   7.89741E+03   5.79721E+04  HDC003pwh_spng_004  
 HD   C      3   1.37856E+04   5.82351E+04  HDC003pwh_spng_006  
 HD   I      3   1.45291E+04   5.86265E+04  HDI003pwh_spng_007  
 HD   I      3   1.49897E+04   5.87068E+04  HDI003pwh_spng_008  
 HD   C      2   1.62674E+04   5.91654E+04  HDC002pwh_spng_009  
 HD   I      3   2.46165E+04   5.45300E+04  HDI003pwh_spng_010  
 HD   I      3   2.47304E+04   5.38830E+04  HDI003pwh_spng_011  
 HD   I      3   2.55551E+04   5.45735E+04  HDI003pwh_spng_012  
 HD   C      4   1.27869E+04   3.65154E+04  HDC004pwh_spng_013  
 HD   I      4   3.79360E+04   4.93696E+04  HDI004pwh_spng_014  
 HD   I      3   1.75669E+04   3.29179E+04  HDI003pwh_spng_015  
 HD   I      3   4.23378E+04   4.23618E+04  HDI003pwh_spng_016  
 HD   I      2   2.31405E+04   2.83255E+04  HDI002pwh_spng_017  
 HD   C      3   4.56109E+04   4.22468E+04  HDC003pwh_spng_018  
 HD   C      3   5.76651E+04   4.87494E+04  HDC003pwh_spng_019  
 HD   I      4   5.37579E+04   3.94626E+04  HDI004pwh_spng_021  
 HD   I      4   5.07885E+04   3.75450E+04  HDI004pwh_spng_022  
 HD   I      3   6.25165E+04   4.87587E+04  HDI003pwh_spng_023  
 HD   I      4   6.31124E+04   4.97677E+04  HDI004pwh_spng_024  
 HD   I      3   5.12939E+04   3.50242E+04  HDI003pwh_spng_026  
 HD   I      3   5.15412E+04   3.36793E+04  HDI003pwh_spng_027  
 HD   I      3   4.97077E+04   3.21693E+04  HDI003pwh_spng_028  
 HD   I      2   6.67661E+04   4.51917E+04  HDI002pwh_spng_029  
 HD   I      3   7.68043E+04   5.35190E+04  HDI003pwh_spng_032  
 HD   I      3   5.07526E+04   3.06077E+04  HDI003pwh_spng_034  
 HD   I      3   5.07019E+04   2.91348E+04  HDI003pwh_spng_035  
 HD   C      2   5.07659E+04   2.87436E+04  HDC002pwh_spng_036  
 HD   C      1   4.97406E+04   2.88009E+04  HDC001pwh_spng_038  
 HD   I      3   7.31026E+04   4.33752E+04  HDI003pwh_spng_040  
 HD   C      3   7.20084E+04   6.40457E+03  HDC003nwi_spng_000  
 HD   I      4   6.66445E+04   4.07852E+03  HDI004nwi_spng_001  
 HD   I      2   7.03854E+04   7.62263E+03  HDI002nwi_spng_002  
 HD   I      4   6.73722E+04   6.00023E+03  HDI004nwi_spng_003  
 HD   I      4   6.78714E+04   6.84746E+03  HDI004nwi_spng_004  
 HD   I      4   6.57826E+04   6.39104E+03  HDI004nwi_spng_006  
 HD   I      4   6.87683E+04   8.51203E+03  HDI004nwi_spng_007  
 HD   C      1   6.91740E+04   9.40861E+03  HDC001nwi_spng_008  
 HD   C      1   6.67260E+04   8.12280E+03  HDC001nwi_spng_009  
 HD   I      4   6.72243E+04   1.01151E+04  HDI004nwi_spng_010  
 HD   I      3   5.90136E+04   1.21544E+04  HDI003nwi_spng_011  
 HD   I      1   7.92468E+04   3.15080E+04  HDI001nwi_spng_012  
 HD   C      1   7.51995E+04   3.41853E+04  HDC001nwi_spng_013  
 HD   I      2   7.33593E+04   3.55904E+04  HDI002nwi_spng_014  
 HD   I      2   7.33212E+04   3.56022E+04  HDI002nwi_spng_015  
 HD   I      3   7.34061E+04   4.00252E+04  HDI003nwi_spng_016  
 HD   I      2   4.85554E+04   2.45715E+04  HDI002nwi_spng_017  
 HD   I      1   5.00594E+04   2.56747E+04  HDI001nwi_spng_018  
 HD   I      2   7.28037E+04   4.42512E+04  HDI002nwi_spng_020  
 HD   I      3   5.21543E+04   3.14545E+04  HDI003nwi_spng_021  
 HD   I      3   5.20013E+04   3.16860E+04  HDI003nwi_spng_022  
 HD   I      3   7.64016E+04   5.34202E+04  HDI003nwi_spng_023  
 HD   I      4   5.04806E+04   3.75912E+04  HDI004nwi_spng_024  
 HD   I      2   5.39864E+04   4.07230E+04  HDI002nwi_spng_025  
 HD   I      3   3.11241E+04   2.77112E+04  HDI003nwi_spng_026  
 HD   I      3   6.28344E+04   4.93974E+04  HDI003nwi_spng_028  
 HD   I      4   5.47793E+04   4.79030E+04  HDI004nwi_spng_029  
 HD   I      4   4.42598E+04   4.34947E+04  HDI004nwi_spng_030  
 HD   I      3   4.21273E+04   4.25298E+04  HDI003nwi_spng_031  
 HD   I      4   4.30556E+04   4.49531E+04  HDI004nwi_spng_032  
 HD   C      3   1.72642E+04   3.17422E+04  HDC003nwi_spng_033  
 HD   C      3   3.06952E+04   4.38543E+04  HDC003nwi_spng_034  
 HD   I      4   3.76622E+04   4.89286E+04  HDI004nwi_spng_035  
 HD   I      3   2.48195E+04   5.40507E+04  HDI003nwi_spng_036  
 HD   I      4   2.47574E+04   5.46006E+04  HDI004nwi_spng_037  
 HD   I      1   1.11769E+04   4.63726E+04  HDI001nwi_spng_038  
 HD   I      3   1.06793E+04   5.72654E+04  HDI003nwi_spng_039  
 HD   I      3   4.92600E+03   5.87435E+04  HDI003nwi_spng_041  
 HD   I      1   6.42988E+04   1.28384E+04  HDI001nw2_spng_000  
 HD   C      2   6.54976E+04   1.18939E+04  HDC002nw2_spng_001  
 HD   C      3   6.60075E+04   1.11224E+04  HDC003nw2_spng_002  
 HD   I      2   4.77957E+04   3.08312E+04  HDI002nw2_spng_003  
 HD   I      3   2.29365E+04   2.67982E+04  HDI003nw2_spng_004  
 HD   C      2   6.09309E+04   2.35098E+04  HDC002nw2_spng_005  
 HD   C      1   8.33632E+04   1.07465E+04  HDC001nw2_spng_006  
 HD   I      3   7.18785E+04   3.67175E+04  HDI003nw2_spng_007  
 HD   I      1   4.75112E+04   3.96583E+04  HDI001nw2_spng_008  
 HD   I      3   7.17985E+04   3.67014E+04  HDI003nw2_spng_009  
 HD   I      4   6.84813E+04   4.45636E+04  HDI004nw2_spng_012  
 HD   I      4   2.33981E+04   4.18094E+04  HDI004nwi_well_000  
 HD   I      4   6.79603E+04   3.35960E+03  HDI004gws_well_002  
 HD   I      4   6.86012E+04   4.81766E+03  HDI004gws_well_004  
 HD   I      4   6.82851E+04   4.60882E+03  HDI004gws_well_005  
 HD   I      4   6.89253E+04   5.10571E+03  HDI004gws_well_006  
 HD   I      4   6.84895E+04   7.36754E+03  HDI004gws_well_007  
 HD   I      4   6.72536E+04   6.99411E+03  HDI004gws_well_008  
 HD   I      4   6.80257E+04   8.20652E+03  HDI004gws_well_009  
 HD   I      3   8.31193E+04   1.75436E+04  HDI003gws_well_010  
 HD   I      4   6.67880E+04   7.24077E+03  HDI004gws_well_011  
 HD   I      4   6.77058E+04   7.95810E+03  HDI004gws_well_012  
 HD   I      4   6.79019E+04   8.53124E+03  HDI004gws_well_013  
 HD   I      4   6.76055E+04   8.70491E+03  HDI004gws_well_015  
 HD   C      3   6.63516E+04   1.06476E+04  HDC003gws_well_016  
 HD   C      3   6.63346E+04   1.06734E+04  HDC003gws_well_017  
 HD   I      4   6.75773E+04   1.03493E+04  HDI004gws_well_018  
 HD   I      2   7.13315E+04   1.64632E+04  HDI002gws_well_020  
 HD   I      1   6.79271E+04   1.59031E+04  HDI001gws_well_021  
 HD   I      1   6.88387E+04   1.67650E+04  HDI001gws_well_022  
 HD   I      3   6.81539E+04   1.67218E+04  HDI003gws_well_023  
 HD   I      1   6.86147E+04   1.76519E+04  HDI001gws_well_024  
 HD   I      1   7.38640E+04   2.17282E+04  HDI001gws_well_025  
 HD   I      2   6.94440E+04   2.04191E+04  HDI002gws_well_026  
 HD   I      3   7.02474E+04   2.23564E+04  HDI003gws_well_027  
 HD   I      2   6.93226E+04   2.17439E+04  HDI002gws_well_028  
 HD   I      1   7.02043E+04   2.25128E+04  HDI001gws_well_029  
 HD   I      1   6.89432E+04   2.16775E+04  HDI001gws_well_030  
 HD   I      1   6.89262E+04   2.17032E+04  HDI001gws_well_031  
 HD   I      4   6.20755E+04   1.81686E+04  HDI004gws_well_032  
 HD   I      3   7.20000E+04   2.59403E+04  HDI003gws_well_033  
 HD   I      3   8.54779E+04   3.50979E+04  HDI003gws_well_034  
 HD   I      4   8.57935E+04   3.57154E+04  HDI004gws_well_035  
 HD   I      4   9.38150E+04   4.12509E+04  HDI004gws_well_036  
 HD   I      1   8.15678E+04   3.40143E+04  HDI001gws_well_037  
 HD   I      1   8.09003E+04   3.36075E+04  HDI001gws_well_038  
 HD   I      4   7.72144E+04   3.12320E+04  HDI004gws_well_039  
 HD   I      3   5.27580E+04   2.08449E+04  HDI003gws_well_040  
 HD   I      1   5.01965E+04   2.22574E+04  HDI001gws_well_041  
 HD   I      1   5.01667E+04   2.23485E+04  HDI001gws_well_042  
 HD   I      3   4.83057E+04   2.27461E+04  HDI003gws_well_043  
 HD   I      3   4.62239E+04   2.15582E+04  HDI003gws_well_044  
 HD   I      2   4.19557E+04   2.42844E+04  HDI002gws_well_046  
 HD   I      2   3.81099E+04   2.50006E+04  HDI002gws_well_047  
 HD   I      2   3.28500E+04   3.31291E+04  HDI002gws_well_048  
 HD   I      2   1.96609E+04   3.11031E+04  HDI002gws_well_049  
 HD   I      1   2.31455E+04   3.47189E+04  HDI001gws_well_050  
 HD   I      1   2.30826E+04   3.46775E+04  HDI001gws_well_051  
 HD   I      1   2.54162E+04   3.62478E+04  HDI001gws_well_052  
 HD   I      1   1.66011E+04   4.30188E+04  HDI001gws_well_053  
 HD   I      3   1.56712E+04   4.27440E+04  HDI003gws_well_054  
 HD   I      2   6.89794E+04   2.01929E+04  HDI002w55_well_000  
 HD   I      2   6.88109E+04   1.86307E+04  HDI002w55_well_001  
 HD   I      4   6.78782E+04   6.94186E+03  HDI004w55_well_002  
 HD   I      2   6.97610E+04   1.97452E+04  HDI002w55_well_003  
 HD   I      2   6.99368E+04   2.12991E+04  HDI002w55_well_004  
 HD   I      4   6.61966E+04   9.89790E+03  HDI004w55_well_005  
 HD   C      3   6.66443E+04   9.94892E+03  HDC003w55_well_006  
 HD   I      3   9.17501E+04   2.99869E+04  HDI003w55_well_007  
 HD   I      3   9.16710E+04   3.72757E+04  HDI003w55_well_008  
 HD   I      4   6.73773E+04   9.93728E+03  HDI004w55_well_009  
 HD   I      4   6.77769E+04   3.63588E+03  HDI004w55_well_011  
 HD   I      4   6.63117E+04   1.04509E+04  HDI004w55_well_012  
 HD   I      3   6.58079E+04   1.01214E+04  HDI003w55_well_013  
 HD   C      3   6.68143E+04   1.00570E+04  HDC003w55_well_014  
 HD   I      4   6.61940E+04   5.83704E+03  HDI004w55_well_015  
 HD   I      4   6.58079E+04   1.01214E+04  HDI004w55_well_016  
 HD   I      4   6.78782E+04   6.94186E+03  HDI004w55_well_017  
 HD   I      4   7.32852E+04   5.70313E+03  HDI004w55_well_018  
 HD   I      2   6.62802E+04   1.95298E+04  HDI002w55_well_019  
 HD   I      2   6.66160E+04   1.97527E+04  HDI002w55_well_020  
 HD   I      2   6.68757E+04   1.54164E+04  HDI002w55_well_021  
 HD   I      4   8.79147E+04   3.66963E+04  HDI004w55_well_022  
 HD   I      4   8.69118E+04   3.89276E+04  HDI004w55_well_023  
 HD   I      1   6.80309E+04   1.98046E+04  HDI001w55_well_024  
 HD   I      4   6.60860E+04   1.00647E+04  HDI004w55_well_025  
 HD   I      3   6.61966E+04   9.89790E+03  HDI003w55_well_026  
 HD   I      4   6.67730E+04   8.60831E+03  HDI004w55_well_027  
 HD   I      4   6.66443E+04   9.94892E+03  HDI004w55_well_028  
 HD   I      4   6.76374E+04   3.66515E+03  HDI004w55_well_029  
 HD   I      1   6.74883E+04   1.98947E+04  HDI001w55_well_030  
 HD   I      4   7.65246E+04   1.17155E+04  HDI004w55_well_031  
 HD   I      1   6.74883E+04   1.98947E+04  HDI001w55_well_032  
 HD   C      1   7.55729E+04   1.13275E+04  HDC001w55_well_033  
 HD   C      2   6.63117E+04   1.04509E+04  HDC002w55_well_034  
 HD   I      4   6.74433E+04   8.33051E+03  HDI004w55_well_035  
 HD   I      4   6.76133E+04   8.43860E+03  HDI004w55_well_036  
 HD   I      4   6.75539E+04   8.16503E+03  HDI004w55_well_037  
 HD   I      4   6.84008E+04   4.65503E+03  HDI004w55_well_038  
 HD   I      4   6.84008E+04   4.65503E+03  HDI004w55_well_039  
 HD   I      4   6.84008E+04   4.65503E+03  HDI004w55_well_040  
 HD   I      4   6.84008E+04   4.65503E+03  HDI004w55_well_041  
 HD   I      4   6.80549E+04   3.57782E+03  HDI004w55_well_042  
 HD   I      4   6.80549E+04   3.57782E+03  HDI004w55_well_043  
 HD   I      4   6.85718E+04   4.76619E+03  HDI004w55_well_044  
 HD   I      1   2.76998E+04   3.63987E+04  HDI001w55_well_046  
 HD   I      3   4.85699E+04   2.26327E+04  HDI003w55_well_047  
 HD   I      2   4.22719E+04   2.37847E+04  HDI002w55_well_048  
 HD   I      4   6.80549E+04   3.57782E+03  HDI004w55_well_049  
 HD   I      1   2.58689E+04   3.17095E+04  HDI001w55_well_051  
 HD   I      4   6.74489E+04   3.41715E+03  HDI004w55_well_052  
 HD   I      4   6.72182E+04   3.75249E+03  HDI004w55_well_053  
 HD   I      3   6.63648E+04   1.00072E+04  HDI003w55_well_054  
 HD   I      2   6.63648E+04   1.00072E+04  HDI002w55_well_055  
 HD   I      4   6.79579E+04   3.02403E+03  HDI004w55_well_056  
 HD   I      4   6.80549E+04   3.57782E+03  HDI004w55_well_057  
 HD   I      4   7.05546E+04   4.48578E+03  HDI004w55_well_058  
 HD   I      1   4.99553E+04   2.23393E+04  HDI001w55_well_059  
 HD   I      1   5.00658E+04   2.21712E+04  HDI001w55_well_060  
 HD   I      4   7.49254E+04   5.94460E+03  HDI004w55_well_061  
 HD   I      4   8.11899E+04   1.10660E+04  HDI004w55_well_062  
 HD   I      4   6.75885E+04   3.38794E+03  HDI004w55_well_063  
 HD   I      2   9.10777E+04   3.09920E+04  HDI002w55_well_064  
 HD   I      1   8.63806E+04   3.48311E+04  HDI001w55_well_065  
 HD   I      4   6.72733E+04   8.22126E+03  HDI004w55_well_066  
 HD   I      4   8.75793E+04   3.57486E+04  HDI004w55_well_067  
 HD   I      4   6.60284E+04   9.78869E+03  HDI004w55_well_068  
 HD   I      1   6.85329E+04   1.94127E+04  HDI001w55_well_070  
 HD   I      4   7.67500E+04   1.21065E+04  HDI004w55_well_071  
 HD   I      2   7.04396E+04   2.16316E+04  HDI002w55_well_072  
 HD   I      4   7.38521E+04   1.21173E+04  HDI004w55_well_073  
 HD   I      2   7.50225E+04   1.21677E+04  HDI002w55_well_074  
1
                            STRESS PERIOD NO.    1, LENGTH =   1.000000    
                            -----------------------------------------------

                              NUMBER OF TIME STEPS =     1

                               MULTIPLIER FOR DELT =     1.000

                            INITIAL TIME STEP SIZE =   1.000000    

 OPENING FILE ON UNIT   99:
 .\WEL_0000.dat                                                                                                                                                                                          

 WELL NO.  LAYER   ROW   COL   STRESS RATE         
 --------------------------------------------------
      1      3    134    235       0.000    
      2      3    133    235       0.000    
      3      3    133    236       0.000    
      4      3    117    233       0.000    

      4 WELLS

 OPENING FILE ON UNIT   99:
 ..\externalfiles\DRN_0000.dat                                                                                                                                                                           

 DRAIN NO.  LAYER   ROW   COL     DRAIN EL.  CONDUCTANCE         
 ----------------------------------------------------------------
      1      2      5      7       460.2           1001.    
      2      2      6      6       469.9           1001.    
      3      2      6      7       467.0           1001.    
      4      2      6      8       464.1           1001.    
      5      2      6      9       461.1           1001.    
      6      2      7      6       477.1           1001.    
      7      2      7      7       475.0           1001.    
      8      2      7      9       471.0           1001.    
      9      2      7     10       467.8           1001.    
     10      2      8      7       484.3           1001.    
     11      2      8     10       481.0           1001.    
     12      2      8     11       475.7           1001.    
     13      2      9      7       494.6           1001.    
     14      2      9     11       492.2           1001.    
     15      2     10      7       505.6           1001.    
     16      2     10     11       512.6           1001.    
     17      2     11      7       516.6           1001.    
     18      2     11     11       535.9           1001.    
     19      2     11     12       520.0           1001.    
     20      2     11     23       469.5           1001.    
     21      2     11     24       479.3           1001.    
     22      2     11     52       467.9           1001.    
     23      2     11     53       466.1           1001.    
     24      2     11     54       469.0           1001.    
     25      2     11     55       477.7           1001.    
     26      2     11     56       506.3           1001.    
     27      2     12      7       527.2           1001.    
     28      2     12      8       533.9           1001.    
     29      2     12     12       547.5           1001.    
     30      3     12     16       399.4           1001.    
     31      3     12     17       417.9           1001.    
     32      2     12     18       432.1           1001.    
     33      2     12     19       442.4           1001.    
     34      2     12     20       457.2           1001.    
     35      2     12     21       465.9           1001.    
     36      2     12     22       469.3           1001.    
     37      2     12     23       475.9           1001.    
     38      2     12     24       482.4           1001.    
     39      2     12     25       482.1           1001.    
     40      2     12     51       469.2           1001.    
     41      2     12     52       470.7           1001.    
     42      2     12     56       503.7           1001.    
     43      2     12     57       518.9           1001.    
     44      2     12     58       516.0           1001.    
     45      2     12     59       518.0           1001.    
     46      2     13      8       544.1           1001.    
     47      2     13     12       568.2           1001.    
     48      2     13     13       550.0           1001.    
     49      2     13     16       435.3           1001.    
     50      2     13     17       438.3           1001.    
     51      2     13     18       440.6           1001.    
     52      2     13     25       482.2           1001.    
     53      2     13     49       504.7           1001.    
     54      2     13     50       499.4           1001.    
     55      2     13     51       480.5           1001.    
     56      2     13     59       516.0           1001.    
     57      2     13     60       522.9           1001.    
     58      2     13     63       520.9           954.8    
     59      2     13     64       520.3           954.8    
     60      2     14      8       552.5           1001.    
     61      2     14     13       566.4           1001.    
     62      2     14     14       537.1           1001.    
     63      2     14     15       490.8           1001.    
     64      2     14     16       459.4           1001.    
     65      2     14     25       481.4           1001.    
     66      2     14     26       479.6           1001.    
     67      2     14     48       503.5           1001.    
     68      2     14     49       505.5           1001.    
     69      2     14     60       520.2           954.8    
     70      2     14     61       522.6           954.8    
     71      2     14     62       520.9           954.8    
     72      2     14     63       516.5           954.8    
     73      2     14     64       514.0           954.8    
     74      2     14     65       514.2           954.8    
     75      2     15      8       559.8           1001.    
     76      2     15     26       482.0           1001.    
     77      2     15     44       487.1           1001.    
     78      2     15     45       490.3           1001.    
     79      2     15     46       496.4           1001.    
     80      2     15     47       501.2           1001.    
     81      2     15     48       504.9           1001.    
     82      2     15     65       522.9           954.8    
     83      2     16      8       566.5           1001.    
     84      2     16     26       488.2           1001.    
     85      2     16     27       484.2           1001.    
     86      2     16     28       481.3           1001.    
     87      2     16     43       495.2           1001.    
     88      2     16     44       492.9           1001.    
     89      2     16     65       535.1           954.8    
     90      2     16     66       535.2           954.8    
     91      2     17      8       573.3           1001.    
     92      2     17     28       485.8           1001.    
     93      2     17     29       485.7           1001.    
     94      2     17     30       487.8           1001.    
     95      2     17     31       491.7           1001.    
     96      2     17     38       524.7           1001.    
     97      2     17     39       538.6           1001.    
     98      2     17     40       536.0           1001.    
     99      2     17     44       500.5           1001.    
    100      2     17     66       534.2           954.8    
    101      2     17     67       522.7           954.8    
    102      2     18      8       580.5           1001.    
    103      2     18      9       582.3           1001.    
    104      2     18     31       491.2           1001.    
    105      2     18     32       492.0           1001.    
    106      2     18     35       489.2           1001.    
    107      2     18     36       499.0           1001.    
    108      2     18     37       506.8           1001.    
    109      2     18     38       516.0           1001.    
    110      2     18     40       526.9           1001.    
    111      2     18     41       515.9           1001.    
    112      2     18     44       510.3           1001.    
    113      2     18     67       516.4           954.8    
    114      2     18     68       510.3           954.8    
    115      2     19      9       589.0           1001.    
    116      2     19     32       495.1           1001.    
    117      2     19     33       492.0           1001.    
    118      2     19     34       493.0           1001.    
    119      2     19     35       499.7           1001.    
    120      2     19     41       520.5           1001.    
    121      2     19     44       523.1           1001.    
    122      2     19     68       510.7           954.8    
    123      2     20      7       597.9           1001.    
    124      2     20      9       597.0           1001.    
    125      2     20     41       530.8           1001.    
    126      2     20     42       530.8           1001.    
    127      2     20     44       538.9           1001.    
    128      2     20     45       544.9           1001.    
    129      2     20     68       515.8           954.8    
    130      2     20     69       525.4           954.8    
    131      2     21      7       609.2           1001.    
    132      2     21      8       607.9           1001.    
    133      2     21      9       606.7           1001.    
    134      2     21     42       547.9           1001.    
    135      2     21     45       562.4           1001.    
    136      2     21     69       528.1           954.8    
    137      4     21    242       857.5           955.5    
    138      4     21    243       881.2           955.5    
    139      4     21    244       884.5           955.5    
    140      4     21    245       890.4           955.5    
    141      4     21    246       894.4           955.5    
    142      2     22      6       624.1           1001.    
    143      2     22      7       621.9           1001.    
    144      2     22     42       566.8           1001.    
    145      2     22     43       570.8           1001.    
    146      2     22     45       580.8           1001.    
    147      2     22     69       534.8           954.8    
    148      2     22     70       546.5           954.8    
    149      4     22    222       465.5           955.5    
    150      4     22    223       500.9           955.5    
    151      4     22    224       526.2           955.5    
    152      4     22    225       519.6           955.5    
    153      4     22    226       528.3           955.5    
    154      4     22    228       545.5           955.5    
    155      4     22    229       555.8           955.5    
    156      4     22    230       589.2           955.5    
    157      4     22    231       630.7           955.5    
    158      4     22    232       675.3           955.5    
    159      4     22    233       741.0           955.5    
    160      4     22    239       849.9           955.5    
    161      4     22    240       816.9           955.5    
    162      4     22    241       836.6           955.5    
    163      4     22    242       852.5           955.5    
    164      4     22    243       881.3           955.5    
    165      4     22    244       901.5           955.5    
    166      4     22    246       876.9           955.5    
    167      4     22    247       916.7           955.5    
    168      2     23     43       590.9           1001.    
    169      2     23     44       595.2           1001.    
    170      2     23     45       599.7           1001.    
    171      2     23     70       553.3           954.8    
    172      2     23     71       571.9           954.8    
    173      2     23     72       577.3           954.8    
    174      2     23     73       566.7           954.8    
    175      4     23    222       516.2           955.5    
    176      4     23    223       520.3           955.5    
    177      4     23    225       548.1           955.5    
    178      4     23    226       507.0           955.5    
    179      4     23    227       528.2           955.5    
    180      4     23    228       563.4           955.5    
    181      4     23    230       616.2           955.5    
    182      4     23    231       618.4           955.5    
    183      4     23    232       690.3           955.5    
    184      4     23    233       716.0           955.5    
    185      4     23    234       728.1           955.5    
    186      4     23    235       762.1           955.5    
    187      4     23    236       768.1           955.5    
    188      4     23    237       790.5           955.5    
    189      4     23    238       817.2           955.5    
    190      4     23    239       832.4           955.5    
    191      4     23    240       847.1           955.5    
    192      4     23    247       901.0           955.5    
    193      4     23    248       941.4           955.5    
    194      2     24      7       651.3           1001.    
    195      2     24      8       649.0           1001.    
    196      2     24     73       569.7           954.8    
    197      2     24     74       556.1           954.8    
    198      2     24     75       552.3           954.8    
    199      2     24     76       554.6           954.8    
    200      4     24    226       544.6           955.5    
    201      4     24    227       545.7           955.5    
    202      4     24    233       778.3           955.5    
    203      4     24    234       762.5           955.5    
    204      4     24    237       801.6           955.5    
    205      4     24    248       921.0           955.5    
    206      4     24    249       937.0           955.5    
    207      4     24    250       955.6           955.5    
    208      2     25      8       665.3           1001.    
    209      2     25     76       558.8           954.8    
    210      2     25     77       559.3           954.8    
    211      4     25     83       392.0           954.8    
    212      4     25    227       545.1           955.5    
    213      2     25    243       1095.           955.5    
    214      2     25    244       1083.           955.5    
    215      4     25    250       952.0           955.5    
    216      4     25    251       960.9           955.5    
    217      2     26      8       682.3           1001.    
    218      2     26     77       564.0           954.8    
    219      2     26     78       565.2           954.8    
    220      3     26     83       417.5           954.8    
    221      2     26    224       735.9           955.5    
    222      2     26    225       708.5           955.5    
    223      4     26    227       566.8           955.5    
    224      4     26    228       587.3           955.5    
    225      2     26    241       1126.           955.5    
    226      2     26    242       1108.           955.5    
    227      2     26    243       1097.           955.5    
    228      2     26    244       1092.           955.5    
    229      2     26    245       1095.           955.5    
    230      2     26    246       1100.           955.5    
    231      2     26    247       1088.           955.5    
    232      4     26    251       971.5           955.5    
    233      4     26    252       977.6           955.5    
    234      2     27      8       699.6           1001.    
    235      2     27      9       698.2           1001.    
    236      2     27     78       569.5           954.8    
    237      2     27     79       569.0           954.8    
    238      3     27     82       466.2           954.8    
    239      3     27     83       456.1           954.8    
    240      2     27     86       641.5           954.8    
    241      2     27     87       632.4           954.8    
    242      2     27    224       739.7           955.5    
    243      2     27    225       714.6           955.5    
    244      2     27    226       698.7           955.5    
    245      4     27    228       582.7           955.5    
    246      2     27    241       1133.           955.5    
    247      2     27    247       1110.           955.5    
    248      2     27    248       1095.           955.5    
    249      4     27    252       976.4           955.5    
    250      3     27    253       984.2           955.5    
    251      2     28      7       717.6           1001.    
    252      2     28      9       716.1           1001.    
    253      2     28     79       566.2           954.8    
    254      2     28     80       568.1           954.8    
    255      3     28     82       502.6           954.8    
    256      3     28     83       482.3           954.8    
    257      2     28     86       673.5           954.8    
    258      2     28     87       662.5           954.8    
    259      2     28     88       642.1           954.8    
    260      2     28    224       751.8           955.5    
    261      2     28    226       711.1           955.5    
    262      4     28    228       585.8           955.5    
    263      2     28    236       1161.           955.5    
    264      2     28    241       1147.           955.5    
    265      2     28    248       1129.           955.5    
    266      2     28    249       1117.           955.5    
    267      2     28    250       1113.           955.5    
    268      3     28    253       989.7           955.5    
    269      3     28    254       991.2           955.5    
    270      3     28    255       1005.           955.5    
    271      2     29      7       734.2           1001.    
    272      2     29      8       734.2           1001.    
    273      2     29      9       734.0           1001.    
    274      2     29     80       569.4           954.8    
    275      2     29     81       587.6           954.8    
    276      3     29     82       557.5           954.8    
    277      3     29     83       496.8           954.8    
    278      2     29     86       710.5           954.8    
    279      2     29     87       697.8           954.8    
    280      2     29     88       671.9           954.8    
    281      2     29     89       640.3           954.8    
    282      2     29    224       767.0           955.5    
    283      2     29    226       727.6           955.5    
    284      4     29    228       591.3           955.5    
    285      4     29    229       629.5           955.5    
    286      2     29    235       1162.           955.5    
    287      2     29    236       1162.           955.5    
    288      2     29    237       1160.           955.5    
    289      2     29    238       1166.           955.5    
    290      2     29    241       1161.           955.5    
    291      2     29    250       1120.           955.5    
    292      2     29    251       1107.           955.5    
    293      3     29    255       999.5           955.5    
    294      3     29    256       1018.           955.5    
    295      3     29    257       1035.           955.5    
    296      3     29    258       1055.           955.5    
    297      3     29    259       1093.           955.5    
    298      2     30      5       748.4           1001.    
    299      2     30      6       749.6           1001.    
    300      2     30      7       750.6           1001.    
    301      2     30     81       602.7           954.8    
    302      3     30     83       510.7           954.8    
    303      3     30     84       539.2           954.8    
    304      2     30     87       735.6           954.8    
    305      2     30     89       668.2           954.8    
    306      2     30     90       632.9           954.8    
    307      2     30     99       639.8           954.8    
    308      2     30    100       628.2           954.8    
    309      2     30    224       776.2           955.5    
    310      2     30    226       736.2           955.5    
    311      3     30    228       617.0           955.5    
    312      4     30    229       630.8           955.5    
    313      2     30    236       1163.           955.5    
    314      2     30    238       1167.           955.5    
    315      2     30    239       1173.           955.5    
    316      2     30    240       1175.           955.5    
    317      2     30    241       1170.           955.5    
    318      2     30    251       1117.           955.5    
    319      3     30    258       1090.           955.5    
    320      3     30    259       1071.           955.5    
    321      3     30    260       1093.           955.5    
    322      2     30    261       1121.           955.5    
    323      2     30    262       1118.           955.5    
    324      2     31     81       618.5           954.8    
    325      3     31     84       528.3           954.8    
    326      2     31     87       769.6           954.8    
    327      2     31     89       700.2           954.8    
    328      2     31     90       663.3           954.8    
    329      2     31     99       650.1           954.8    
    330      2     31    100       636.9           954.8    
    331      2     31    101       633.2           997.3    
    332      2     31    224       780.2           500.0    
    333      2     31    226       733.4           955.5    
    334      3     31    228       641.2           955.5    
    335      4     31    229       644.9           955.5    
    336      2     31    236       1159.           955.5    
    337      2     31    251       1128.           955.5    
    338      2     31    252       1128.           955.5    
    339      2     31    257       1149.           955.5    
    340      2     31    258       1140.           955.5    
    341      2     31    259       1130.           955.5    
    342      3     31    260       1115.           955.5    
    343      3     31    261       1117.           955.5    
    344      2     31    262       1111.           955.5    
    345      2     32     81       632.7           954.8    
    346      3     32     83       550.3           954.8    
    347      3     32     84       550.2           954.8    
    348      2     32     87       793.7           954.8    
    349      2     32     89       731.5           954.8    
    350      2     32     98       665.5           954.8    
    351      2     32     99       656.9           954.8    
    352      2     32    101       639.1           997.3    
    353      2     32    102       641.1           997.3    
    354      2     32    223       791.4           500.0    
    355      2     32    224       776.0           500.0    
    356      2     32    226       724.3           500.0    
    357      2     32    227       715.4           955.5    
    358      3     32    228       652.2           955.5    
    359      4     32    229       646.9           955.5    
    360      2     32    236       1152.           955.5    
    361      2     32    252       1138.           955.5    
    362      2     32    257       1156.           955.5    
    363      2     32    259       1130.           955.5    
    364      2     32    260       1114.           955.5    
    365      2     32    261       1100.           955.5    
    366      2     32    262       1096.           955.5    
    367      2     33     80       630.5           954.8    
    368      2     33     81       648.5           954.8    
    369      3     33     83       566.3           954.8    
    370      2     33     87       801.8           954.8    
    371      2     33     89       756.4           954.8    
    372      2     33     92       706.5           954.8    
    373      2     33     93       699.6           954.8    
    374      2     33     98       674.4           954.8    
    375      2     33    102       638.7           997.3    
    376      2     33    222       802.3           500.0    
    377      2     33    223       789.6           500.0    
    378      2     33    227       705.1           500.0    
    379      3     33    228       671.3           500.0    
    380      4     33    229       650.5           955.5    
    381      2     33    235       1140.           955.5    
    382      2     33    236       1150.           955.5    
    383      2     33    252       1149.           955.5    
    384      2     33    253       1152.           955.5    
    385      2     33    254       1146.           955.5    
    386      2     33    257       1150.           955.5    
    387      2     33    258       1141.           955.5    
    388      2     34      5       808.0           1001.    
    389      2     34      6       811.5           1001.    
    390      2     34      7       814.9           1001.    
    391      2     34     80       647.3           954.8    
    392      3     34     82       593.7           954.8    
    393      3     34     83       582.3           954.8    
    394      2     34     86       795.8           954.8    
    395      2     34     87       798.8           954.8    
    396      2     34     89       772.3           954.8    
    397      2     34     92       733.4           954.8    
    398      2     34     93       727.0           954.8    
    399      2     34     94       720.5           954.8    
    400      2     34     98       681.0           954.8    
    401      2     34    101       639.6           997.3    
    402      2     34    102       642.8           997.3    
    403      2     34    223       788.4           500.0    
    404      2     34    227       698.0           500.0    
    405      4     34    229       658.5           500.0    
    406      2     34    235       1146.           955.5    
    407      2     34    254       1158.           955.5    
    408      2     34    255       1147.           955.5    
    409      2     34    258       1133.           955.5    
    410      2     35      7       831.0           1001.    
    411      2     35      8       834.8           1001.    
    412      2     35      9       838.5           1001.    
    413      2     35     79       655.4           954.8    
    414      2     35     80       669.7           954.8    
    415      3     35     81       628.8           954.8    
    416      3     35     82       601.9           954.8    
    417      2     35     86       794.8           954.8    
    418      2     35     89       782.2           954.8    
    419      2     35     90       770.6           954.8    
    420      2     35     91       760.1           954.8    
    421      2     35     92       751.6           954.8    
    422      2     35     94       735.8           954.8    
    423      2     35     98       683.2           997.3    
    424      2     35    101       644.1           997.3    
    425      2     35    223       771.1           500.0    
    426      2     35    227       695.2           500.0    
    427      4     35    229       671.2           500.0    
    428      2     35    235       1146.           955.5    
    429      2     35    255       1154.           955.5    
    430      2     35    256       1140.           955.5    
    431      2     35    257       1133.           955.5    
    432      2     35    258       1129.           955.5    
    433      2     36      9       856.0           1001.    
    434      2     36     10       860.2           1001.    
    435      2     36     11       864.1           1001.    
    436      2     36     79       681.8           954.8    
    437      3     36     81       629.4           954.8    
    438      2     36     86       796.8           954.8    
    439      2     36     94       744.4           954.8    
    440      2     36     95       732.9           954.8    
    441      2     36     98       689.7           997.3    
    442      2     36    101       652.2           997.3    
    443      2     36    102       653.1           997.3    
    444      4     36    212       503.5           1002.    
    445      2     36    219       794.5           1002.    
    446      2     36    220       777.2           1002.    
    447      2     36    221       762.5           500.0    
    448      2     36    222       753.9           500.0    
    449      2     36    223       746.4           500.0    
    450      2     36    227       696.0           500.0    
    451      4     36    228       714.3           500.0    
    452      4     36    229       681.9           500.0    
    453      2     36    235       1134.           500.0    
    454      2     36    236       1151.           955.5    
    455      2     36    237       1160.           955.5    
    456      2     37     11       883.1           1001.    
    457      2     37     12       887.4           1001.    
    458      2     37     78       704.4           954.8    
    459      2     37     79       711.6           954.8    
    460      3     37     80       662.8           954.8    
    461      3     37     81       649.1           954.8    
    462      2     37     84       822.1           954.8    
    463      2     37     85       805.7           954.8    
    464      2     37     86       799.2           954.8    
    465      2     37     95       738.0           954.8    
    466      2     37     97       714.3           997.3    
    467      2     37     98       699.6           997.3    
    468      2     37    102       652.0           997.3    
    469      2     37    103       655.2           997.3    
    470      4     37    211       514.6           1002.    
    471      2     37    217       799.8           1002.    
    472      2     37    218       791.2           1002.    
    473      2     37    219       785.6           1002.    
    474      2     37    227       698.8           500.0    
    475      4     37    228       704.5           500.0    
    476      2     37    237       1145.           500.0    
    477      2     37    238       1150.           500.0    
    478      2     38     12       907.0           1001.    
    479      2     38     13       911.6           1001.    
    480      2     38     78       728.0           954.8    
    481      3     38     79       717.6           954.8    
    482      3     38     80       681.2           954.8    
    483      2     38     84       833.5           954.8    
    484      2     38     95       734.5           954.8    
    485      2     38     96       729.3           997.3    
    486      2     38     97       721.2           997.3    
    487      2     38    103       656.2           997.3    
    488      4     38    211       558.3           1002.    
    489      2     38    216       811.9           1002.    
    490      2     38    217       805.5           1002.    
    491      2     38    227       707.6           500.0    
    492      4     38    228       721.8           500.0    
    493      4     38    229       695.5           500.0    
    494      2     38    238       1135.           500.0    
    495      2     38    239       1143.           500.0    
    496      2     39     13       931.8           1001.    
    497      2     39     14       936.5           1001.    
    498      2     39     15       940.4           1001.    
    499      2     39     78       748.1           954.8    
    500      3     39     79       748.8           954.8    
    501      2     39     84       834.0           954.8    
    502      2     39    103       676.1           997.3    
    503      2     39    148       665.2           905.1    
    504      2     39    152       727.6           905.1    
    505      2     39    153       717.2           905.1    
    506      4     39    211       627.2           1002.    
    507      4     39    212       614.5           1002.    
    508      2     39    215       816.2           1002.    
    509      2     39    216       807.1           1002.    
    510      2     39    227       729.2           500.0    
    511      4     39    229       709.2           500.0    
    512      2     39    239       1125.           500.0    
    513      2     39    240       1140.           500.0    
    514      2     39    241       1161.           500.0    
    515      2     40     15       961.6           1001.    
    516      2     40     16       965.1           1001.    
    517      2     40     78       765.1           954.8    
    518      2     40     79       769.6           954.8    
    519      2     40     84       834.4           954.8    
    520      2     40    103       706.0           997.3    
    521      2     40    104       723.0           997.3    
    522      2     40    105       742.9           997.3    
    523      2     40    148       648.8           905.1    
    524      2     40    149       673.9           905.1    
    525      2     40    150       698.8           905.1    
    526      2     40    151       713.2           905.1    
    527      2     40    152       726.3           905.1    
    528      2     40    153       717.8           905.1    
    529      2     40    154       697.5           905.1    
    530      2     40    155       686.3           905.1    
    531      2     40    156       688.8           905.1    
    532      2     40    157       690.6           905.1    
    533      2     40    158       679.8           905.1    
    534      4     40    212       636.9           1002.    
    535      2     40    215       828.3           1002.    
    536      2     40    227       759.7           500.0    
    537      4     40    229       728.8           500.0    
    538      2     40    241       1144.           500.0    
    539      2     41     16       986.6           1001.    
    540      2     41     17       989.2           1001.    
    541      2     41     79       780.1           954.8    
    542      2     41     80       791.4           954.8    
    543      2     41     84       832.8           954.8    
    544      2     41    105       763.0           997.3    
    545      2     41    106       768.6           997.3    
    546      2     41    149       645.4           905.1    
    547      2     41    158       674.3           905.1    
    548      2     41    207       811.1           1002.    
    549      2     41    208       798.4           1002.    
    550      2     41    209       791.2           1002.    
    551      3     41    211       690.7           1002.    
    552      3     41    212       676.2           1002.    
    553      2     41    215       831.5           1002.    
    554      2     41    216       820.5           1002.    
    555      2     41    227       788.7           500.0    
    556      4     41    229       744.2           500.0    
    557      2     41    241       1146.           500.0    
    558      2     42     17       1011.           1001.    
    559      2     42     80       795.1           954.8    
    560      2     42     82       825.4           954.8    
    561      2     42     83       833.2           954.8    
    562      2     42     84       835.1           954.8    
    563      2     42    106       772.0           997.3    
    564      2     42    107       764.2           997.3    
    565      4     42    110       433.9           997.3    
    566      4     42    127       422.1           997.3    
    567      2     42    149       644.3           905.1    
    568      2     42    158       669.4           905.1    
    569      2     42    159       676.5           905.1    
    570      2     42    200       810.2           1002.    
    571      2     42    203       808.7           1002.    
    572      2     42    204       801.3           1002.    
    573      2     42    205       799.8           1002.    
    574      2     42    206       806.5           1002.    
    575      2     42    207       808.9           1002.    
    576      2     42    209       798.3           1002.    
    577      3     42    211       708.2           1002.    
    578      2     42    216       822.1           1002.    
    579      2     42    227       809.0           500.0    
    580      4     42    229       752.8           500.0    
    581      2     42    236       1132.           500.0    
    582      2     42    237       1130.           500.0    
    583      2     42    238       1130.           500.0    
    584      2     42    239       1136.           500.0    
    585      2     42    240       1145.           500.0    
    586      2     42    241       1161.           500.0    
    587      2     43     17       1031.           1001.    
    588      2     43     80       805.2           954.8    
    589      2     43     81       808.9           954.8    
    590      2     43     82       824.6           954.8    
    591      2     43    105       770.3           997.3    
    592      2     43    106       770.6           997.3    
    593      2     43    107       758.2           997.3    
    594      4     43    109       479.8           997.3    
    595      4     43    110       449.3           997.3    
    596      4     43    111       416.1           997.3    
    597      2     43    124       636.9           997.3    
    598      4     43    127       455.3           997.3    
    599      2     43    147       655.4           905.1    
    600      2     43    148       646.0           905.1    
    601      2     43    149       650.7           905.1    
    602      2     43    159       672.4           905.1    
    603      2     43    199       808.1           1002.    
    604      2     43    200       808.0           1002.    
    605      2     43    201       800.2           1002.    
    606      2     43    202       796.1           1002.    
    607      2     43    203       804.7           1002.    
    608      2     43    208       806.5           1002.    
    609      2     43    209       806.5           1002.    
    610      3     43    210       750.7           1002.    
    611      3     43    211       733.4           1002.    
    612      2     43    213       832.0           1002.    
    613      2     43    215       826.3           1002.    
    614      2     43    216       823.3           1002.    
    615      2     43    227       817.6           500.0    
    616      4     43    229       760.1           500.0    
    617      2     43    233       1135.           500.0    
    618      2     43    234       1125.           500.0    
    619      2     43    235       1126.           500.0    
    620      2     43    236       1143.           500.0    
    621      2     44     17       1047.           1001.    
    622      2     44     18       1048.           1001.    
    623      2     44    104       760.8           997.3    
    624      2     44    105       761.8           997.3    
    625      4     44    108       542.8           997.3    
    626      4     44    109       505.0           997.3    
    627      2     44    119       718.1           997.3    
    628      2     44    122       710.3           997.3    
    629      2     44    123       668.5           997.3    
    630      2     44    124       634.0           997.3    
    631      3     44    126       500.0           997.3    
    632      3     44    127       504.6           997.3    
    633      2     44    148       655.0           905.1    
    634      2     44    159       669.3           905.1    
    635      2     44    194       807.3           1017.    
    636      2     44    195       807.0           1017.    
    637      2     44    196       807.6           1017.    
    638      2     44    197       805.8           1002.    
    639      2     44    198       805.4           1002.    
    640      2     44    199       806.8           1002.    
    641      2     44    208       815.0           1002.    
    642      3     44    210       761.5           1002.    
    643      2     44    212       855.6           1002.    
    644      2     44    213       848.3           1002.    
    645      2     44    214       837.4           1002.    
    646      2     44    215       832.3           1002.    
    647      2     44    227       815.2           500.0    
    648      4     44    229       772.5           500.0    
    649      2     44    233       1142.           500.0    
    650      2     44    234       1143.           500.0    
    651      2     45     18       1055.           1001.    
    652      2     45    104       761.3           997.3    
    653      4     45    108       521.9           997.3    
    654      4     45    109       558.5           997.3    
    655      2     45    118       764.5           997.3    
    656      2     45    119       738.4           997.3    
    657      2     45    120       734.4           997.3    
    658      2     45    121       755.2           997.3    
    659      2     45    122       730.0           997.3    
    660      2     45    124       632.8           997.3    
    661      3     45    126       492.8           997.3    
    662      2     45    128       704.9           997.3    
    663      2     45    148       659.7           905.1    
    664      2     45    159       672.8           905.1    
    665      2     45    162       744.5           905.1    
    666      2     45    163       712.7           905.1    
    667      2     45    166       703.8           905.1    
    668      2     45    167       715.7           905.1    
    669      2     45    168       719.0           1017.    
    670      2     45    169       719.5           1017.    
    671      2     45    170       725.1           1017.    
    672      2     45    171       732.8           1017.    
    673      2     45    194       802.9           1017.    
    674      2     45    208       826.0           1002.    
    675      3     45    210       787.1           1002.    
    676      2     45    212       863.5           1002.    
    677      2     45    227       807.5           500.0    
    678      4     45    229       783.5           500.0    
    679      2     45    234       1162.           500.0    
    680      2     46     18       1057.           1001.    
    681      2     46    103       782.4           997.3    
    682      2     46    104       770.1           997.3    
    683      4     46    107       542.0           997.3    
    684      4     46    108       538.3           997.3    
    685      2     46    117       769.3           997.3    
    686      2     46    118       761.3           997.3    
    687      2     46    123       656.6           997.3    
    688      2     46    124       624.7           997.3    
    689      3     46    126       516.4           997.3    
    690      2     46    128       708.2           997.3    
    691      2     46    129       698.7           997.3    
    692      2     46    130       681.5           997.3    
    693      2     46    148       667.0           905.1    
    694      2     46    149       663.0           905.1    
    695      2     46    159       681.6           905.1    
    696      2     46    160       707.2           905.1    
    697      2     46    162       749.8           905.1    
    698      2     46    163       734.3           905.1    
    699      2     46    164       716.9           905.1    
    700      2     46    165       711.6           905.1    
    701      2     46    166       715.1           905.1    
    702      2     46    171       735.7           1017.    
    703      2     46    174       762.4           1017.    
    704      2     46    175       754.8           1017.    
    705      4     46    182       470.0           1017.    
    706      2     46    194       798.0           1017.    
    707      2     46    208       837.3           1002.    
    708      3     46    210       817.3           1002.    
    709      2     46    212       869.8           1002.    
    710      2     46    227       803.0           500.0    
    711      4     46    229       801.4           500.0    
    712      2     46    233       1155.           500.0    
    713      2     46    234       1180.           500.0    
    714      2     47     18       1062.           1001.    
    715      2     47    102       796.4           997.3    
    716      2     47    103       787.0           997.3    
    717      4     47    107       561.8           997.3    
    718      4     47    108       562.6           997.3    
    719      2     47    117       762.8           997.3    
    720      2     47    123       634.1           997.3    
    721      3     47    124       608.9           997.3    
    722      3     47    125       532.3           997.3    
    723      3     47    126       569.1           997.3    
    724      2     47    127       690.6           997.3    
    725      2     47    128       695.6           997.3    
    726      2     47    130       666.1           997.3    
    727      2     47    149       672.5           905.1    
    728      2     47    150       674.3           905.1    
    729      2     47    160       717.4           905.1    
    730      2     47    162       758.4           905.1    
    731      2     47    171       741.6           1017.    
    732      2     47    172       745.0           1017.    
    733      2     47    173       756.3           1017.    
    734      2     47    174       757.6           1017.    
    735      2     47    175       749.5           1017.    
    736      2     47    176       746.6           1017.    
    737      4     47    182       518.5           1017.    
    738      4     47    183       548.0           1017.    
    739      2     47    194       796.1           1017.    
    740      2     47    195       792.8           1017.    
    741      2     47    208       848.3           1002.    
    742      2     47    209       856.6           1002.    
    743      3     47    210       860.6           1002.    
    744      2     47    211       872.4           1002.    
    745      2     47    212       876.9           1002.    
    746      2     47    227       806.4           500.0    
    747      4     47    228       858.2           500.0    
    748      4     47    229       816.6           500.0    
    749      2     47    233       1162.           500.0    
    750      2     48     18       1071.           1001.    
    751      2     48     19       1075.           1001.    
    752      2     48    101       815.7           997.3    
    753      2     48    102       802.2           997.3    
    754      3     48    106       607.4           997.3    
    755      4     48    107       586.0           997.3    
    756      2     48    111       777.4           997.3    
    757      2     48    117       783.3           997.3    
[...]
   2192      2    136    138       1723.           1001.    
   2193      2    136    139       1714.           1001.    
   2194      2    136    152       1563.           1001.    
   2195      2    136    153       1562.           1001.    
   2196      2    136    154       1562.           1001.    
   2197      2    136    155       1560.           1001.    
   2198      3    136    159       1534.           1001.    
   2199      2    136    177       1624.           1001.    
   2200      2    136    178       1607.           1001.    
   2201      2    136    204       1599.           1001.    
   2202      2    137    129       1738.           1001.    
   2203      2    137    130       1732.           1001.    
   2204      2    137    131       1725.           1001.    
   2205      2    137    139       1749.           1001.    
   2206      2    137    140       1723.           1001.    
   2207      2    137    141       1693.           1001.    
   2208      2    137    142       1672.           1001.    
   2209      2    137    143       1667.           1001.    
   2210      2    137    144       1662.           1001.    
   2211      2    137    145       1651.           1001.    
   2212      2    137    146       1631.           1001.    
   2213      2    137    147       1608.           1001.    
   2214      2    137    148       1595.           1001.    
   2215      2    137    149       1590.           1001.    
   2216      2    137    150       1588.           1001.    
   2217      2    137    151       1586.           1001.    
   2218      2    137    152       1584.           1001.    
   2219      3    137    158       1541.           1001.    
   2220      2    137    178       1632.           1001.    
   2221      2    137    179       1613.           1001.    
   2222      2    137    204       1615.           1001.    
   2223      3    138    156       1552.           1001.    
   2224      2    138    179       1633.           1001.    
   2225      2    138    203       1630.           1001.    
   2226      2    138    204       1627.           1001.    
   2227      3    139    150       1593.           1001.    
   2228      3    139    155       1559.           1001.    
   2229      2    139    179       1651.           1001.    
   2230      2    139    202       1643.           1001.    
   2231      2    139    203       1639.           1001.    
   2232      3    140    150       1595.           1001.    
   2233      3    140    151       1585.           1001.    
   2234      3    140    152       1578.           1001.    
   2235      3    140    153       1572.           1001.    
   2236      2    140    179       1670.           1001.    
   2237      2    140    199       1658.           1001.    
   2238      2    140    200       1657.           1001.    
   2239      2    140    201       1656.           1001.    
   2240      2    140    202       1653.           1001.    
   2241      2    141    179       1688.           1001.    
   2242      2    141    199       1671.           1001.    
   2243      2    142    179       1702.           1001.    
   2244      2    142    199       1682.           1001.    
   2245      2    143    179       1721.           1001.    
   2246      2    143    199       1695.           1001.    
   2247      2    144    179       1740.           1001.    
   2248      2    144    199       1708.           1001.    
   2249      2    145    179       1760.           1001.    
   2250      2    145    199       1724.           1001.    
   2251      2    146    179       1782.           1001.    
   2252      2    146    199       1737.           1001.    
   2253      2    147    195       1752.           1001.    
   2254      2    147    196       1755.           1001.    
   2255      2    147    197       1760.           1001.    
   2256      2    147    198       1758.           1001.    
   2257      2    147    199       1743.           1001.    
   2258      2    148    192       1778.           1001.    
   2259      2    148    193       1772.           1001.    
   2260      2    148    194       1767.           1001.    
   2261      2    148    195       1757.           1001.    
   2262      2    149    192       1794.           1001.    
   2263      2    150    192       1811.           1001.    
   2264      2    151    189       1857.           1001.    
   2265      2    151    190       1852.           1001.    
   2266      2    151    191       1838.           1001.    
   2267      2    151    192       1823.           1001.    
   2268      2    155    277       1537.           1033.    
   2269      2    156    277       1553.           1033.    
   2270      2    157    277       1562.           1033.    
   2271      2    163    277       1579.           1033.    
   2272      2    163    278       1579.           1033.    
   2273      2    164    278       1583.           1033.    
   2274      2    167    191       1684.           1001.    
   2275      2    168    191       1671.           1001.    
   2276      4    176    224       1218.           1033.    
   2277      4    176    225       1196.           1033.    
   2278      4    177    225       1197.           1033.    
   2279      4    177    226       1188.           1033.    
   2280      4    178    226       1187.           1033.    
   2281      4    178    227       1203.           1033.    
   2282      4    179    226       1184.           1033.    
   2283      4    179    227       1207.           1033.    
   2284      4    180    227       1192.           1033.    
   2285      4    181    227       1180.           1033.    
   2286      4    182    227       1177.           1033.    
   2287      4    183    227       1172.           1033.    
   2288      4    184    227       1167.           1033.    
   2289      4    184    228       1196.           1033.    
   2290      4    185    227       1170.           1033.    
   2291      4    186    227       1169.           1033.    
   2292      4    186    228       1187.           1033.    
   2293      4    187    227       1161.           1033.    
   2294      4    187    228       1175.           1033.    
   2295      4    188    227       1156.           1033.    
   2296      4    188    228       1161.           1033.    
   2297      4    189    227       1153.           1033.    
   2298      4    189    228       1152.           1033.    
   2299      4    190    227       1154.           1033.    
   2300      4    190    228       1146.           1033.    
   2301      4    191    228       1143.           1033.    
   2302      4    192    228       1142.           1033.    
   2303      4    193    228       1142.           1033.    
   2304      4    194    228       1142.           1033.    
   2305      4    195    228       1138.           1033.    
   2306      4    196    227       1141.           1033.    
   2307      4    196    228       1135.           1033.    
   2308      4    197    227       1133.           1033.    
   2309      4    198    227       1133.           1033.    
   2310      4    199    226       1126.           1033.    
   2311      4    199    227       1140.           1033.    
   2312      4    200    226       1122.           1033.    
   2313      4    200    227       1137.           1033.    

   2313 DRAINS

 OPENING FILE ON UNIT   99:
 ..\externalfiles\rech_12.ref                                                                                                                                                                            



                           RECHARGE
 READING ON UNIT   99 WITH FORMAT: (FREE)              
 
 SOLVING FOR HEAD 
                                                   Max.-Head-Change                        Max.-Flux-Residual
  Residual-Control   Outer-Iter.   Inner-Iter.     Column Row Layer    Max.-Head-Change    Column Row Layer    Max.-Flux-Residual            L2-New               L2-Old           Solver-Max-Delh
          0                 1          45           220  180     3      -0.9101376690E+01     236  133    3      -0.8100931744E+03      0.1017623268E+04      0.4095264929E-02     -0.9101376690E+01
          0                 2          38           220  180     3       0.7417666302E+01     236  133    3       0.8100924402E+02      0.1058668639E+03      0.1017623268E+04      0.7417666302E+01
          0                 3          25           224  114     2       0.1126308785E+01     224  114    2       0.5897718194E+02      0.7459310288E+02      0.1058668639E+03      0.1126308785E+01
          0                 4          18           227  161     3      -0.2213910235E+00     227  161    3      -0.5065594908E+01      0.7721198341E+01      0.7459310288E+02     -0.2213910235E+00
          0                 5          13           227  161     3      -0.9204401087E-01     227  161    3      -0.1501557715E+01      0.1780388329E+01      0.7721198341E+01     -0.9204401087E-01
          0                 6           6           227  161     3      -0.2746147190E-01     227  161    3      -0.3721231656E+00      0.4634384936E+00      0.1780388329E+01     -0.2746147190E-01
          0                 7           3           227  161     3      -0.5939631322E-02     227  161    3      -0.7561234012E-01      0.1060875994E+00      0.4634384936E+00     -0.5939631322E-02
          0                 8           2           227  161     3      -0.1105819301E-02     227  161    3      -0.1390499146E-01      0.2434525202E-01      0.1060875994E+00     -0.1105819301E-02
          0                 9           1           227  161     3      -0.1971592661E-03     224  115    2       0.3795420285E-02      0.6097643978E-02      0.2434525202E-01     -0.1971592661E-03
          0                10           1           227  161     3      -0.3655032886E-04     224  115    2       0.1100730384E-02      0.1848612469E-02      0.6097643978E-02     -0.3655032886E-04

    ------------------------------------------------
       NWT REQUIRED           10 OUTER ITERATIONS 
       AND A TOTAL OF        152 INNER ITERATIONS.
    ------------------------------------------------

 OUTPUT CONTROL FOR STRESS PERIOD   13   TIME STEP    1
    SAVE HEAD FOR ALL LAYERS
    SAVE BUDGET
    PRINT BUDGET
 UBDSV1 SAVING "         STORAGE" ON UNIT  53 AT TIME STEP  1, STRESS PERIOD  13
 UBDSV2 SAVING "   CONSTANT HEAD" ON UNIT  53 AT TIME STEP  1, STRESS PERIOD  13
 UBDSV1 SAVING "FLOW RIGHT FACE " ON UNIT  53 AT TIME STEP  1, STRESS PERIOD  13
 UBDSV1 SAVING "FLOW FRONT FACE " ON UNIT  53 AT TIME STEP  1, STRESS PERIOD  13
 UBDSV1 SAVING "FLOW LOWER FACE " ON UNIT  53 AT TIME STEP  1, STRESS PERIOD  13
 UBDSV4 SAVING "           WELLS" ON UNIT  53 AT TIME STEP  1, STRESS PERIOD  13
 UBDSV4 SAVING "          DRAINS" ON UNIT  53 AT TIME STEP  1, STRESS PERIOD  13
 UBDSV3 SAVING "        RECHARGE" ON UNIT  53 AT TIME STEP  1, STRESS PERIOD  13

 HEAD WILL BE SAVED ON UNIT   51 AT END OF TIME STEP    1, STRESS PERIOD   13
1
  VOLUMETRIC BUDGET FOR ENTIRE MODEL AT END OF TIME STEP    1, STRESS PERIOD  13
  ------------------------------------------------------------------------------

     CUMULATIVE VOLUMES      L**3       RATES FOR THIS TIME STEP      L**3/T
     ------------------                 ------------------------

           IN:                                      IN:
           ---                                      ---
             STORAGE =   124706272.0000               STORAGE =        6042.6665
       CONSTANT HEAD =           0.0000         CONSTANT HEAD =           0.0000
               WELLS =           0.0000                 WELLS =           0.0000
              DRAINS =           0.0000                DRAINS =           0.0000
            RECHARGE =  1654977920.0000              RECHARGE =       29753.9629

            TOTAL IN =  1779684224.0000              TOTAL IN =       35796.6289

          OUT:                                     OUT:
          ----                                     ----
             STORAGE =         395.0774               STORAGE =       2.0958E-03
       CONSTANT HEAD =   343829760.0000         CONSTANT HEAD =        6181.5273
               WELLS =   127501672.0000                 WELLS =        6213.8384
              DRAINS =  1308350464.0000                DRAINS =       23401.2266
            RECHARGE =           0.0000              RECHARGE =           0.0000

           TOTAL OUT =  1779682304.0000             TOTAL OUT =       35796.5938

            IN - OUT =        1920.0000              IN - OUT =       3.5156E-02

 PERCENT DISCREPANCY =           0.00     PERCENT DISCREPANCY =           0.00






         TIME SUMMARY AT END OF TIME STEP    1 IN STRESS PERIOD   13
                    SECONDS     MINUTES      HOURS       DAYS        YEARS
                    -----------------------------------------------------------
   TIME STEP LENGTH 2.61455E+08 4.35758E+06  72626.      3026.1      8.2850    
 STRESS PERIOD TIME 2.61455E+08 4.35758E+06  72626.      3026.1      8.2850    
         TOTAL TIME 4.80575E+09 8.00958E+07 1.33493E+06  55622.      152.29    
1
 
 SOLVING FOR HEAD 
                                                   Max.-Head-Change                        Max.-Flux-Residual
  Residual-Control   Outer-Iter.   Inner-Iter.     Column Row Layer    Max.-Head-Change    Column Row Layer    Max.-Flux-Residual            L2-New               L2-Old           Solver-Max-Delh
          0                 1          54           227  108     2      -0.2006376770E+01     236  133    2      -0.8563537854E+01      0.1155333580E+03      0.1848612469E-02     -0.2006376770E+01
          0                 2          43           224  127     3       0.8712245080E+01     218  171    3       0.9643044739E+02      0.1203919757E+03      0.1155333580E+03      0.8712245080E+01
          1                 2           0           224  127     3       0.6098571452E+01     224  127    3      -0.6508735617E+03      0.7380459148E+03      0.1203919757E+03      0.8712245080E+01
          2                 2           0           224  127     3       0.4268999944E+01     224  127    3      -0.2967558828E+03      0.3459994020E+03      0.7380459148E+03      0.8712245080E+01
          3                 2           0           224  127     3       0.2988299910E+01     224  127    3      -0.1468631155E+03      0.1836248935E+03      0.3459994020E+03      0.8712245080E+01
          0                 3          41           224  127     3      -0.1425719394E+01     224  127    3      -0.7326351313E+02      0.1194414424E+03      0.1836248935E+03     -0.1425719394E+01
          0                 4          25           224  127     1      -0.7834735128E+00     224  127    3      -0.2460313074E+02      0.2988201740E+02      0.1194414424E+03     -0.7834735128E+00
          0                 5          20           224  127     1      -0.3615339707E+00     224  127    3      -0.7666017351E+01      0.9302481284E+01      0.2988201740E+02     -0.3615339707E+00
          0                 6          14           224  127     1      -0.1245875138E+00     224  127    3      -0.2057903187E+01      0.2471307236E+01      0.9302481284E+01     -0.1245875138E+00
          0                 7           7           224  127     1      -0.3006055761E-01     224  127    3      -0.4478269128E+00      0.5294125157E+00      0.2471307236E+01     -0.3006055761E-01
                                                   Max.-Head-Change                        Max.-Flux-Residual
  Residual-Control   Outer-Iter.   Inner-Iter.     Column Row Layer    Max.-Head-Change    Column Row Layer    Max.-Flux-Residual            L2-New               L2-Old           Solver-Max-Delh
          0                 8           2           224  127     1      -0.5811373534E-02     224  127    3      -0.8424519247E-01      0.9838345353E-01      0.5294125157E+00     -0.5811373534E-02
          0                 9           1           224  127     1      -0.1049619388E-02     224  127    3      -0.1512500436E-01      0.1758471705E-01      0.9838345353E-01     -0.1049619388E-02
          0                10           1           224  127     1      -0.1877139007E-03     224  127    3      -0.2690611696E-02      0.3253345104E-02      0.1758471705E-01     -0.1877139007E-03
          0                11           1           224  127     1      -0.3476929185E-04     224  127    3      -0.4714063630E-03      0.1047519218E-02      0.3253345104E-02     -0.3476929185E-04

    ------------------------------------------------
       NWT REQUIRED           11 OUTER ITERATIONS 
       AND A TOTAL OF        209 INNER ITERATIONS.
    ------------------------------------------------

 OUTPUT CONTROL FOR STRESS PERIOD   13   TIME STEP    2
    SAVE HEAD FOR ALL LAYERS
    SAVE BUDGET
    PRINT BUDGET
 UBDSV1 SAVING "         STORAGE" ON UNIT  53 AT TIME STEP  2, STRESS PERIOD  13
 UBDSV2 SAVING "   CONSTANT HEAD" ON UNIT  53 AT TIME STEP  2, STRESS PERIOD  13
 UBDSV1 SAVING "FLOW RIGHT FACE " ON UNIT  53 AT TIME STEP  2, STRESS PERIOD  13
 UBDSV1 SAVING "FLOW FRONT FACE " ON UNIT  53 AT TIME STEP  2, STRESS PERIOD  13
 UBDSV1 SAVING "FLOW LOWER FACE " ON UNIT  53 AT TIME STEP  2, STRESS PERIOD  13
 UBDSV4 SAVING "           WELLS" ON UNIT  53 AT TIME STEP  2, STRESS PERIOD  13
 UBDSV4 SAVING "          DRAINS" ON UNIT  53 AT TIME STEP  2, STRESS PERIOD  13
 UBDSV3 SAVING "        RECHARGE" ON UNIT  53 AT TIME STEP  2, STRESS PERIOD  13

 HEAD WILL BE SAVED ON UNIT   51 AT END OF TIME STEP    2, STRESS PERIOD   13
1
  VOLUMETRIC BUDGET FOR ENTIRE MODEL AT END OF TIME STEP    2, STRESS PERIOD  13
  ------------------------------------------------------------------------------

     CUMULATIVE VOLUMES      L**3       RATES FOR THIS TIME STEP      L**3/T
     ------------------                 ------------------------

           IN:                                      IN:
           ---                                      ---
             STORAGE =   150397504.0000               STORAGE =        6004.1636
       CONSTANT HEAD =           0.0000         CONSTANT HEAD =           0.0000
               WELLS =           0.0000                 WELLS =           0.0000
              DRAINS =           0.0000                DRAINS =           0.0000
            RECHARGE =  1782292224.0000              RECHARGE =       29753.9629

            TOTAL IN =  1932689664.0000              TOTAL IN =       35758.1250

          OUT:                                     OUT:
          ----                                     ----
             STORAGE =         400.6112               STORAGE =       1.2933E-03
       CONSTANT HEAD =   370279904.0000         CONSTANT HEAD =        6181.5249
               WELLS =   154090080.0000                 WELLS =        6213.8384
              DRAINS =  1408317312.0000                DRAINS =       23362.7266
            RECHARGE =           0.0000              RECHARGE =           0.0000

           TOTAL OUT =  1932687744.0000             TOTAL OUT =       35758.0938

            IN - OUT =        1920.0000              IN - OUT =       3.1250E-02

 PERCENT DISCREPANCY =           0.00     PERCENT DISCREPANCY =           0.00






         TIME SUMMARY AT END OF TIME STEP    2 IN STRESS PERIOD   13
                    SECONDS     MINUTES      HOURS       DAYS        YEARS
                    -----------------------------------------------------------
   TIME STEP LENGTH 3.69697E+08 6.16162E+06 1.02694E+05  4278.9      11.715    
 STRESS PERIOD TIME 6.31152E+08 1.05192E+07 1.75320E+05  7305.0      20.000    
         TOTAL TIME 5.17545E+09 8.62574E+07 1.43762E+06  59901.      164.00    
1

 Run end date and time (yyyy/mm/dd hh:mm:ss): 2020/02/12 10:24:29
 Elapsed run time: 39.177 Seconds

